CHEMBL3678131
Actelion Java MolfileCreator 2.0

  0  0  0  0  0  0              0 V3000
M  V30 BEGIN CTAB
M  V30 COUNTS 39 42 0 0 0
M  V30 BEGIN ATOM
M  V30 1 Cl 9.0932 -3.0 0.0 0
M  V30 2 C 7.7942 -2.25 0.0 0
M  V30 3 C 7.7942 -0.75 0.0 0
M  V30 4 C 6.4951 -2.9999 0.0 0
M  V30 5 C 6.4951 0.0 0.0 0
M  V30 6 C 9.0932 0.0 0.0 0
M  V30 7 C 5.1961 -2.25 0.0 0
M  V30 8 C 5.1961 -0.75 0.0 0
M  V30 9 N 9.0932 1.5 0.0 0
M  V30 10 O 3.8971 0.0 0.0 0
M  V30 11 C 10.3067 2.3816 0.0 0
M  V30 12 C 7.8797 2.3816 0.0 0
M  V30 13 C 2.598 -0.75 0.0 0 CFG=2
M  V30 14 C 9.8432 3.8082 0.0 0
M  V30 15 C 11.774 2.0698 0.0 0
M  V30 16 C 8.3432 3.8082 0.0 0
M  V30 17 C 6.4531 1.9181 0.0 0
M  V30 18 C 1.299 0.0 0.0 0
M  V30 19 C 2.598 -2.25 0.0 0
M  V30 20 C 10.8469 4.9229 0.0 0
M  V30 21 C 12.7777 3.1845 0.0 0
M  V30 22 C 7.4615 5.0217 0.0 0
M  V30 23 O 1.299 1.5 0.0 0
M  V30 24 O 0.0 -0.75 0.0 0
M  V30 25 C 12.3141 4.6111 0.0 0
M  V30 26 C 13.3178 5.7258 0.0 0
M  V30 27 O 14.7851 5.4139 0.0 0
M  V30 28 N 12.8543 7.1524 0.0 0
M  V30 29 C 13.858 8.2671 0.0 0 CFG=2
M  V30 30 C 15.3252 7.9552 0.0 0
M  V30 31 C 13.3945 9.6937 0.0 0
M  V30 32 C 15.7887 6.5286 0.0 0
M  V30 33 C 16.3289 9.0699 0.0 0
M  V30 34 C 17.256 6.2168 0.0 0
M  V30 35 C 17.7961 8.7581 0.0 0
M  V30 36 C 18.2597 7.3315 0.0 0
M  V30 37 C 17.7195 4.7902 0.0 0
M  V30 38 C 16.7158 3.6755 0.0 0
M  V30 39 C 19.1867 4.4783 0.0 0
M  V30 END ATOM
M  V30 BEGIN BOND
M  V30 1 1 1 2
M  V30 2 2 2 3
M  V30 3 1 2 4
M  V30 4 1 3 5
M  V30 5 1 3 6
M  V30 6 2 4 7
M  V30 7 2 5 8
M  V30 8 1 6 9
M  V30 9 1 8 10
M  V30 10 1 9 11
M  V30 11 1 9 12
M  V30 12 1 10 13
M  V30 13 2 11 14
M  V30 14 1 11 15
M  V30 15 2 12 16
M  V30 16 1 12 17
M  V30 17 1 13 18
M  V30 18 1 13 19 CFG=1
M  V30 19 1 14 20
M  V30 20 2 15 21
M  V30 21 1 16 22
M  V30 22 2 18 23
M  V30 23 1 18 24
M  V30 24 2 20 25
M  V30 25 1 25 26
M  V30 26 2 26 27
M  V30 27 1 26 28
M  V30 28 1 28 29
M  V30 29 1 29 30
M  V30 30 1 29 31 CFG=1
M  V30 31 2 30 32
M  V30 32 1 30 33
M  V30 33 1 32 34
M  V30 34 2 33 35
M  V30 35 2 34 36
M  V30 36 1 34 37
M  V30 37 1 37 38
M  V30 38 1 37 39
M  V30 39 1 7 8
M  V30 40 1 14 16
M  V30 41 1 21 25
M  V30 42 1 35 36
M  V30 END BOND
M  V30 BEGIN COLLECTION
M  V30 MDLV30/STEABS ATOMS=(2 13 29)
M  V30 END COLLECTION
M  V30 END CTAB
M  END
>  <Molecule ChEMBL ID>
CHEMBL3678131

>  <Smiles>
Cc1c(C)n(Cc2cc(O[C@@H](C)C(=O)O)ccc2Cl)c2ccc(C(=O)N[C@@H](C)c3cccc(C(C)C)c3)cc12

>  <IC50_nM>
0.06

>  <Assay Description>
Lanthascreen Competitive Binding Assay: The assay was performed according to manufacturer protocol. A mixture of 5 nM GST-PPARG-LBD, 5 nM Tb-GST-antibody, 5 nM Fluormone Pan- PPAR Green, and serial dilutions of the experimental compound, beginning at 10 ׬� downwards, was added to wells of black 384-well low- volume plates (Greiner) to a total volume of 18 xL. All dilutions were made in TR-FRET assay buffer C. DMSO at 2% final concentration was used as a no-ligand control. Experiment was performed in triplicate, and incubated for 2 hours in the dark prior to assay read in Perkin Elmer ViewLux ultra HTS microplate reader. FRET signal was measured by excitation at 340 nm and emission at 520 nm for fluorescein and 490 nm for terbium.

$$$$
CHEMBL3695832
Actelion Java MolfileCreator 2.0

  0  0  0  0  0  0              0 V3000
M  V30 BEGIN CTAB
M  V30 COUNTS 39 43 0 0 0
M  V30 BEGIN ATOM
M  V30 1 O 11.1837 5.7369 0.0 0
M  V30 2 C 10.8747 4.7859 0.0 0
M  V30 3 O 9.8965 4.578 0.0 0
M  V30 4 C 11.5438 4.0427 0.0 0
M  V30 5 C 11.2348 3.0917 0.0 0
M  V30 6 C 12.522 4.2506 0.0 0
M  V30 7 C 10.2566 2.8838 0.0 0
M  V30 8 C 11.9039 2.3485 0.0 0
M  V30 9 C 13.1911 3.5075 0.0 0
M  V30 10 C 9.5875 3.6269 0.0 0
M  V30 11 C 9.9476 1.9327 0.0 0
M  V30 12 C 12.8821 2.5564 0.0 0
M  V30 13 C 8.6094 3.419 0.0 0
M  V30 14 C 8.9695 1.7248 0.0 0
M  V30 15 C 8.3003 2.4679 0.0 0
M  V30 16 C 7.3222 2.26 0.0 0
M  V30 17 N 7.0132 1.309 0.0 0
M  V30 18 C 6.0621 0.9999 0.0 0
M  V30 19 C 7.601 0.5 0.0 0
M  V30 20 C 6.0621 0.0 0.0 0
M  V30 21 C 5.1961 1.4999 0.0 0
M  V30 22 C 7.0132 -0.309 0.0 0
M  V30 23 C 8.601 0.5 0.0 0
M  V30 24 C 5.1961 -0.5 0.0 0
M  V30 25 C 4.3301 0.9999 0.0 0
M  V30 26 C 7.3222 -1.26 0.0 0
M  V30 27 C 4.3301 0.0 0.0 0
M  V30 28 C 3.4641 -0.5 0.0 0
M  V30 29 O 3.4641 -1.5 0.0 0
M  V30 30 N 2.598 0.0 0.0 0
M  V30 31 C 1.732 -0.5 0.0 0 CFG=1
M  V30 32 C 1.732 -1.5 0.0 0
M  V30 33 C 0.866 0.0 0.0 0
M  V30 34 C 0.866 -1.9999 0.0 0
M  V30 35 C 2.598 -2.0 0.0 0
M  V30 36 C 0.0 -0.5 0.0 0
M  V30 37 C 0.866 -2.9999 0.0 0
M  V30 38 C 2.598 -3.0 0.0 0
M  V30 39 C 1.732 -3.5 0.0 0
M  V30 END ATOM
M  V30 BEGIN BOND
M  V30 1 2 1 2
M  V30 2 1 2 3
M  V30 3 1 2 4
M  V30 4 2 4 5
M  V30 5 1 4 6
M  V30 6 1 5 7
M  V30 7 1 5 8
M  V30 8 2 6 9
M  V30 9 2 7 10
M  V30 10 1 7 11
M  V30 11 2 8 12
M  V30 12 1 10 13
M  V30 13 2 11 14
M  V30 14 2 13 15
M  V30 15 1 15 16
M  V30 16 1 16 17
M  V30 17 1 17 18
M  V30 18 1 17 19
M  V30 19 2 18 20
M  V30 20 1 18 21
M  V30 21 2 19 22
M  V30 22 1 19 23
M  V30 23 1 20 24
M  V30 24 2 21 25
M  V30 25 1 22 26
M  V30 26 2 24 27
M  V30 27 1 27 28
M  V30 28 2 28 29
M  V30 29 1 28 30
M  V30 30 1 31 30 CFG=1
M  V30 31 1 31 32
M  V30 32 1 31 33
M  V30 33 2 32 34
M  V30 34 1 32 35
M  V30 35 1 33 36
M  V30 36 1 34 37
M  V30 37 2 35 38
M  V30 38 2 37 39
M  V30 39 1 9 12
M  V30 40 1 14 15
M  V30 41 1 20 22
M  V30 42 1 25 27
M  V30 43 1 38 39
M  V30 END BOND
M  V30 BEGIN COLLECTION
M  V30 MDLV30/STEABS ATOMS=(1 31)
M  V30 END COLLECTION
M  V30 END CTAB
M  END
>  <Molecule ChEMBL ID>
CHEMBL3695832

>  <Smiles>
CC[C@@H](NC(=O)c1ccc2c(c1)c(C)c(C)n2Cc1ccc(-c2ccccc2C(=O)O)cc1)c1ccccc1

>  <IC50_nM>
0.1

>  <Assay Description>
Lanthascreen Competitive Binding Assay: The assay was performed according to manufacturer protocol. A mixture of nM GST-PPARG-LBD, 5 nM Tb-GST-antibody, 5 nM Fluormone Pan-PPAR Green, and serial dilutions of the experimental compound, beginning at 10 ׬M downwards, was added to wells of black 384-well low-volume plates (Greiner) to a total volume of 18 ׬L. All dilutions were made in TR-FRET assay buffer C. DMSO at 2% final concentration was used as a no-ligand control. Experiment was performed in triplicate, and incubated for 2 hours in the dark prior to assay read in Perkin Elmer ViewLux ultra HTS microplate reader. FRET signal was measured by excitation at 340 nm and emission at 520 nm for fluorescein and 490 nm for terbium. Fold change over DMSO was calculated using GraphPad Prism Software (La Jolla, Calif.) by calculating 520 nm/490 nm ratio. Graphs were plotted as fold change of FRET signal for compound treatment over DMSO-only control.

$$$$
CHEMBL3695832
Actelion Java MolfileCreator 2.0

  0  0  0  0  0  0              0 V3000
M  V30 BEGIN CTAB
M  V30 COUNTS 39 43 0 0 0
M  V30 BEGIN ATOM
M  V30 1 O 11.1837 5.7369 0.0 0
M  V30 2 C 10.8747 4.7859 0.0 0
M  V30 3 O 9.8965 4.578 0.0 0
M  V30 4 C 11.5438 4.0427 0.0 0
M  V30 5 C 11.2348 3.0917 0.0 0
M  V30 6 C 12.522 4.2506 0.0 0
M  V30 7 C 10.2566 2.8838 0.0 0
M  V30 8 C 11.9039 2.3485 0.0 0
M  V30 9 C 13.1911 3.5075 0.0 0
M  V30 10 C 9.5875 3.6269 0.0 0
M  V30 11 C 9.9476 1.9327 0.0 0
M  V30 12 C 12.8821 2.5564 0.0 0
M  V30 13 C 8.6094 3.419 0.0 0
M  V30 14 C 8.9695 1.7248 0.0 0
M  V30 15 C 8.3003 2.4679 0.0 0
M  V30 16 C 7.3222 2.26 0.0 0
M  V30 17 N 7.0132 1.309 0.0 0
M  V30 18 C 6.0621 0.9999 0.0 0
M  V30 19 C 7.601 0.5 0.0 0
M  V30 20 C 6.0621 0.0 0.0 0
M  V30 21 C 5.1961 1.4999 0.0 0
M  V30 22 C 7.0132 -0.309 0.0 0
M  V30 23 C 8.601 0.5 0.0 0
M  V30 24 C 5.1961 -0.5 0.0 0
M  V30 25 C 4.3301 0.9999 0.0 0
M  V30 26 C 7.3222 -1.26 0.0 0
M  V30 27 C 4.3301 0.0 0.0 0
M  V30 28 C 3.4641 -0.5 0.0 0
M  V30 29 O 3.4641 -1.5 0.0 0
M  V30 30 N 2.598 0.0 0.0 0
M  V30 31 C 1.732 -0.5 0.0 0 CFG=1
M  V30 32 C 1.732 -1.5 0.0 0
M  V30 33 C 0.866 0.0 0.0 0
M  V30 34 C 0.866 -1.9999 0.0 0
M  V30 35 C 2.598 -2.0 0.0 0
M  V30 36 C 0.0 -0.5 0.0 0
M  V30 37 C 0.866 -2.9999 0.0 0
M  V30 38 C 2.598 -3.0 0.0 0
M  V30 39 C 1.732 -3.5 0.0 0
M  V30 END ATOM
M  V30 BEGIN BOND
M  V30 1 2 1 2
M  V30 2 1 2 3
M  V30 3 1 2 4
M  V30 4 2 4 5
M  V30 5 1 4 6
M  V30 6 1 5 7
M  V30 7 1 5 8
M  V30 8 2 6 9
M  V30 9 2 7 10
M  V30 10 1 7 11
M  V30 11 2 8 12
M  V30 12 1 10 13
M  V30 13 2 11 14
M  V30 14 2 13 15
M  V30 15 1 15 16
M  V30 16 1 16 17
M  V30 17 1 17 18
M  V30 18 1 17 19
M  V30 19 2 18 20
M  V30 20 1 18 21
M  V30 21 2 19 22
M  V30 22 1 19 23
M  V30 23 1 20 24
M  V30 24 2 21 25
M  V30 25 1 22 26
M  V30 26 2 24 27
M  V30 27 1 27 28
M  V30 28 2 28 29
M  V30 29 1 28 30
M  V30 30 1 31 30 CFG=1
M  V30 31 1 31 32
M  V30 32 1 31 33
M  V30 33 2 32 34
M  V30 34 1 32 35
M  V30 35 1 33 36
M  V30 36 1 34 37
M  V30 37 2 35 38
M  V30 38 2 37 39
M  V30 39 1 9 12
M  V30 40 1 14 15
M  V30 41 1 20 22
M  V30 42 1 25 27
M  V30 43 1 38 39
M  V30 END BOND
M  V30 BEGIN COLLECTION
M  V30 MDLV30/STEABS ATOMS=(1 31)
M  V30 END COLLECTION
M  V30 END CTAB
M  END
>  <Molecule ChEMBL ID>
CHEMBL3695832

>  <Smiles>
CC[C@@H](NC(=O)c1ccc2c(c1)c(C)c(C)n2Cc1ccc(-c2ccccc2C(=O)O)cc1)c1ccccc1

>  <IC50_nM>
0.13

>  <Assay Description>
Binding affinity to GST-tagged PPAR-gamma-LBD (unknown origin) after 2 hrs by Lantha screen assay using fluormone Pan-PPAR green probe

$$$$
CHEMBL5191837
Actelion Java MolfileCreator 2.0

  0  0  0  0  0  0              0 V3000
M  V30 BEGIN CTAB
M  V30 COUNTS 29 32 0 0 0
M  V30 BEGIN ATOM
M  V30 1 Cl 1.732 1.4999 0.0 0
M  V30 2 C 2.598 1.0 0.0 0
M  V30 3 C 2.598 0.0 0.0 0
M  V30 4 C 3.4641 1.4999 0.0 0
M  V30 5 C 1.732 -0.5 0.0 0
M  V30 6 C 3.4641 -0.5 0.0 0
M  V30 7 C 4.3301 1.0 0.0 0
M  V30 8 O 1.732 -1.5 0.0 0
M  V30 9 N 0.866 0.0 0.0 0
M  V30 10 C 4.3301 0.0 0.0 0
M  V30 11 C 0.0 -0.5 0.0 0
M  V30 12 N 5.1961 -0.5 0.0 0 CHG=1
M  V30 13 C -0.866 0.0 0.0 0
M  V30 14 C 0.0 -1.5 0.0 0
M  V30 15 O 5.1961 -1.5 0.0 0
M  V30 16 O 6.0621 0.0 0.0 0 CHG=-1
M  V30 17 C -1.732 -0.4999 0.0 0
M  V30 18 C -0.866 -1.9999 0.0 0
M  V30 19 N -2.6831 -0.1909 0.0 0
M  V30 20 C -1.732 -1.4999 0.0 0
M  V30 21 C -3.2708 -0.9999 0.0 0
M  V30 22 O -2.6831 -1.809 0.0 0
M  V30 23 C -4.2708 -0.9999 0.0 0
M  V30 24 C -4.7708 -0.1339 0.0 0
M  V30 25 C -4.7708 -1.866 0.0 0
M  V30 26 N -5.7708 -0.1339 0.0 0
M  V30 27 C -5.7708 -1.866 0.0 0
M  V30 28 C -6.2708 -0.9999 0.0 0
M  V30 29 C -6.2708 -2.732 0.0 0
M  V30 END ATOM
M  V30 BEGIN BOND
M  V30 1 1 1 2
M  V30 2 2 2 3
M  V30 3 1 2 4
M  V30 4 1 3 5
M  V30 5 1 3 6
M  V30 6 2 4 7
M  V30 7 2 5 8
M  V30 8 1 5 9
M  V30 9 2 6 10
M  V30 10 1 9 11
M  V30 11 1 10 12
M  V30 12 2 11 13
M  V30 13 1 11 14
M  V30 14 2 12 15
M  V30 15 1 12 16
M  V30 16 1 13 17
M  V30 17 2 14 18
M  V30 18 1 17 19
M  V30 19 2 17 20
M  V30 20 2 19 21
M  V30 21 1 20 22
M  V30 22 1 21 23
M  V30 23 2 23 24
M  V30 24 1 23 25
M  V30 25 1 24 26
M  V30 26 2 25 27
M  V30 27 2 26 28
M  V30 28 1 27 29
M  V30 29 1 7 10
M  V30 30 1 18 20
M  V30 31 1 21 22
M  V30 32 1 27 28
M  V30 END BOND
M  V30 END CTAB
M  END
>  <Molecule ChEMBL ID>
CHEMBL5191837

>  <Smiles>
Cc1cncc(-c2nc3cc(NC(=O)c4cc([N+](=O)[O-])ccc4Cl)ccc3o2)c1

>  <IC50_nM>
0.16

>  <Assay Description>
Inverse agonist activity at PPARgamma in human RT112/84-FABP4 cells assessed as reduction in PPARgamma transactivation measured by Nanoluciferase reporter gene assay

$$$$
CHEMBL5207130
Actelion Java MolfileCreator 2.0

  0  0  0  0  0  0              0 V3000
M  V30 BEGIN CTAB
M  V30 COUNTS 30 33 0 0 0
M  V30 BEGIN ATOM
M  V30 1 Cl 1.732 1.4999 0.0 0
M  V30 2 C 2.598 1.0 0.0 0
M  V30 3 C 2.598 0.0 0.0 0
M  V30 4 C 3.4641 1.4999 0.0 0
M  V30 5 C 1.732 -0.5 0.0 0
M  V30 6 C 3.4641 -0.5 0.0 0
M  V30 7 C 4.3301 1.0 0.0 0
M  V30 8 O 1.732 -1.5 0.0 0
M  V30 9 N 0.866 0.0 0.0 0
M  V30 10 C 4.3301 0.0 0.0 0
M  V30 11 C 0.0 -0.5 0.0 0
M  V30 12 N 5.1961 -0.5 0.0 0 CHG=1
M  V30 13 C -0.866 0.0 0.0 0
M  V30 14 C 0.0 -1.5 0.0 0
M  V30 15 O 5.1961 -1.5 0.0 0
M  V30 16 O 6.0621 0.0 0.0 0 CHG=-1
M  V30 17 C -1.732 -0.4999 0.0 0
M  V30 18 C -0.866 -1.9999 0.0 0
M  V30 19 N -2.6831 -0.1909 0.0 0
M  V30 20 C -1.732 -1.4999 0.0 0
M  V30 21 C -3.2708 -0.9999 0.0 0
M  V30 22 O -2.6831 -1.809 0.0 0
M  V30 23 C -4.2708 -0.9999 0.0 0
M  V30 24 C -4.7708 -0.1339 0.0 0
M  V30 25 C -4.7708 -1.866 0.0 0
M  V30 26 C -5.7708 -0.1339 0.0 0
M  V30 27 C -5.7708 -1.866 0.0 0
M  V30 28 C -6.2708 -0.9999 0.0 0
M  V30 29 C -7.2708 -0.9999 0.0 0
M  V30 30 C -7.7708 -1.866 0.0 0
M  V30 END ATOM
M  V30 BEGIN BOND
M  V30 1 1 1 2
M  V30 2 2 2 3
M  V30 3 1 2 4
M  V30 4 1 3 5
M  V30 5 1 3 6
M  V30 6 2 4 7
M  V30 7 2 5 8
M  V30 8 1 5 9
M  V30 9 2 6 10
M  V30 10 1 9 11
M  V30 11 1 10 12
M  V30 12 2 11 13
M  V30 13 1 11 14
M  V30 14 2 12 15
M  V30 15 1 12 16
M  V30 16 1 13 17
M  V30 17 2 14 18
M  V30 18 1 17 19
M  V30 19 2 17 20
M  V30 20 2 19 21
M  V30 21 1 20 22
M  V30 22 1 21 23
M  V30 23 2 23 24
M  V30 24 1 23 25
M  V30 25 1 24 26
M  V30 26 2 25 27
M  V30 27 2 26 28
M  V30 28 1 28 29
M  V30 29 1 29 30
M  V30 30 1 7 10
M  V30 31 1 18 20
M  V30 32 1 21 22
M  V30 33 1 27 28
M  V30 END BOND
M  V30 END CTAB
M  END
>  <Molecule ChEMBL ID>
CHEMBL5207130

>  <Smiles>
CCc1ccc(-c2nc3cc(NC(=O)c4cc([N+](=O)[O-])ccc4Cl)ccc3o2)cc1

>  <IC50_nM>
0.17

>  <Assay Description>
Inverse agonist activity at PPARgamma in human RT112/84-FABP4 cells assessed as reduction in PPARgamma transactivation measured by Nanoluciferase reporter gene assay

$$$$
CHEMBL3678134
Actelion Java MolfileCreator 2.0

  0  0  0  0  0  0              0 V3000
M  V30 BEGIN CTAB
M  V30 COUNTS 40 43 0 0 0
M  V30 BEGIN ATOM
M  V30 1 Cl 6.0621 -1.9999 0.0 0
M  V30 2 C 5.1961 -1.4999 0.0 0
M  V30 3 C 5.1961 -0.5 0.0 0
M  V30 4 C 4.3301 -1.9999 0.0 0
M  V30 5 C 4.3301 0.0 0.0 0
M  V30 6 C 6.0621 0.0 0.0 0
M  V30 7 C 3.4641 -1.5 0.0 0
M  V30 8 C 3.4641 -0.5 0.0 0
M  V30 9 N 6.0621 1.0 0.0 0
M  V30 10 O 2.598 0.0 0.0 0
M  V30 11 C 6.8711 1.5877 0.0 0
M  V30 12 C 5.2531 1.5877 0.0 0
M  V30 13 C 1.732 -0.5 0.0 0 CFG=2
M  V30 14 C 6.5621 2.5388 0.0 0
M  V30 15 C 7.8493 1.3798 0.0 0
M  V30 16 C 5.5621 2.5388 0.0 0
M  V30 17 C 4.3021 1.2787 0.0 0
M  V30 18 C 0.866 0.0 0.0 0
M  V30 19 C 1.732 -1.5 0.0 0
M  V30 20 C 7.2313 3.2819 0.0 0
M  V30 21 C 8.5184 2.123 0.0 0
M  V30 22 C 4.9743 3.3478 0.0 0
M  V30 23 O 0.866 1.0 0.0 0
M  V30 24 O 0.0 -0.5 0.0 0
M  V30 25 C 8.2094 3.074 0.0 0
M  V30 26 C 8.8785 3.8172 0.0 0
M  V30 27 O 9.8567 3.6093 0.0 0
M  V30 28 N 8.5695 4.7682 0.0 0
M  V30 29 C 9.2387 5.5114 0.0 0 CFG=2
M  V30 30 C 10.2168 5.3035 0.0 0
M  V30 31 C 8.9296 6.4624 0.0 0
M  V30 32 C 10.5258 4.3524 0.0 0
M  V30 33 C 10.8859 6.0466 0.0 0
M  V30 34 C 11.504 4.1445 0.0 0
M  V30 35 C 11.8641 5.8387 0.0 0
M  V30 36 C 12.1731 4.8876 0.0 0
M  V30 37 C 13.1512 4.6797 0.0 0
M  V30 38 C 13.3592 5.6579 0.0 0
M  V30 39 C 14.1294 4.4718 0.0 0
M  V30 40 C 12.9433 3.7016 0.0 0
M  V30 END ATOM
M  V30 BEGIN BOND
M  V30 1 1 1 2
M  V30 2 2 2 3
M  V30 3 1 2 4
M  V30 4 1 3 5
M  V30 5 1 3 6
M  V30 6 2 4 7
M  V30 7 2 5 8
M  V30 8 1 6 9
M  V30 9 1 8 10
M  V30 10 1 9 11
M  V30 11 1 9 12
M  V30 12 1 10 13
M  V30 13 2 11 14
M  V30 14 1 11 15
M  V30 15 2 12 16
M  V30 16 1 12 17
M  V30 17 1 13 18
M  V30 18 1 13 19 CFG=1
M  V30 19 1 14 20
M  V30 20 2 15 21
M  V30 21 1 16 22
M  V30 22 2 18 23
M  V30 23 1 18 24
M  V30 24 2 20 25
M  V30 25 1 25 26
M  V30 26 2 26 27
M  V30 27 1 26 28
M  V30 28 1 28 29
M  V30 29 1 29 30
M  V30 30 1 29 31 CFG=1
M  V30 31 2 30 32
M  V30 32 1 30 33
M  V30 33 1 32 34
M  V30 34 2 33 35
M  V30 35 2 34 36
M  V30 36 1 36 37
M  V30 37 1 37 38
M  V30 38 1 37 39
M  V30 39 1 37 40
M  V30 40 1 7 8
M  V30 41 1 14 16
M  V30 42 1 21 25
M  V30 43 1 35 36
M  V30 END BOND
M  V30 BEGIN COLLECTION
M  V30 MDLV30/STEABS ATOMS=(2 13 29)
M  V30 END COLLECTION
M  V30 END CTAB
M  END
>  <Molecule ChEMBL ID>
CHEMBL3678134

>  <Smiles>
Cc1c(C)n(Cc2cc(O[C@@H](C)C(=O)O)ccc2Cl)c2ccc(C(=O)N[C@@H](C)c3ccc(C(C)(C)C)cc3)cc12

>  <IC50_nM>
0.2

>  <Assay Description>
Lanthascreen Competitive Binding Assay: The assay was performed according to manufacturer protocol. A mixture of 5 nM GST-PPARG-LBD, 5 nM Tb-GST-antibody, 5 nM Fluormone Pan- PPAR Green, and serial dilutions of the experimental compound, beginning at 10 ׬� downwards, was added to wells of black 384-well low- volume plates (Greiner) to a total volume of 18 xL. All dilutions were made in TR-FRET assay buffer C. DMSO at 2% final concentration was used as a no-ligand control. Experiment was performed in triplicate, and incubated for 2 hours in the dark prior to assay read in Perkin Elmer ViewLux ultra HTS microplate reader. FRET signal was measured by excitation at 340 nm and emission at 520 nm for fluorescein and 490 nm for terbium.

$$$$
CHEMBL3678128
Actelion Java MolfileCreator 2.0

  0  0  0  0  0  0              0 V3000
M  V30 BEGIN CTAB
M  V30 COUNTS 40 43 0 0 0
M  V30 BEGIN ATOM
M  V30 1 Cl 4.3301 0.9999 0.0 0
M  V30 2 C 4.3301 0.0 0.0 0
M  V30 3 C 3.4641 -0.5 0.0 0
M  V30 4 C 5.1961 -0.5 0.0 0
M  V30 5 O 2.598 0.0 0.0 0
M  V30 6 C 3.4641 -1.5 0.0 0
M  V30 7 C 5.1961 -1.5 0.0 0
M  V30 8 C 1.732 -0.5 0.0 0 CFG=2
M  V30 9 C 4.3301 -2.0 0.0 0
M  V30 10 C 0.866 0.0 0.0 0
M  V30 11 C 1.732 -1.5 0.0 0
M  V30 12 C 4.3301 -3.0 0.0 0
M  V30 13 O 0.866 1.0 0.0 0
M  V30 14 O 0.0 -0.5 0.0 0
M  V30 15 N 5.1961 -3.5 0.0 0
M  V30 16 C 5.3006 -4.4945 0.0 0
M  V30 17 C 6.1096 -3.0932 0.0 0
M  V30 18 C 6.2788 -4.7024 0.0 0
M  V30 19 C 4.6315 -5.2376 0.0 0
M  V30 20 C 6.7788 -3.8364 0.0 0
M  V30 21 C 6.3176 -2.1151 0.0 0
M  V30 22 C 6.5878 -5.6534 0.0 0
M  V30 23 C 4.9405 -6.1887 0.0 0
M  V30 24 C 7.7733 -3.7318 0.0 0
M  V30 25 C 5.9187 -6.3966 0.0 0
M  V30 26 C 6.2277 -7.3476 0.0 0
M  V30 27 O 5.5586 -8.0908 0.0 0
M  V30 28 N 7.2058 -7.5556 0.0 0
M  V30 29 C 7.5148 -8.5066 0.0 0 CFG=2
M  V30 30 C 6.8457 -9.2498 0.0 0
M  V30 31 C 8.493 -8.7145 0.0 0
M  V30 32 C 5.8676 -9.0418 0.0 0
M  V30 33 C 7.1547 -10.2008 0.0 0
M  V30 34 C 5.1984 -9.785 0.0 0
M  V30 35 C 6.4856 -10.944 0.0 0
M  V30 36 C 5.5075 -10.736 0.0 0
M  V30 37 C 4.8383 -11.4792 0.0 0
M  V30 38 C 5.5815 -12.1483 0.0 0
M  V30 39 C 4.1692 -12.2223 0.0 0
M  V30 40 C 4.0952 -10.8101 0.0 0
M  V30 END ATOM
M  V30 BEGIN BOND
M  V30 1 1 1 2
M  V30 2 2 2 3
M  V30 3 1 2 4
M  V30 4 1 3 5
M  V30 5 1 3 6
M  V30 6 2 4 7
M  V30 7 1 5 8
M  V30 8 2 6 9
M  V30 9 1 8 10
M  V30 10 1 8 11 CFG=1
M  V30 11 1 9 12
M  V30 12 2 10 13
M  V30 13 1 10 14
M  V30 14 1 12 15
M  V30 15 1 15 16
M  V30 16 1 15 17
M  V30 17 2 16 18
M  V30 18 1 16 19
M  V30 19 2 17 20
M  V30 20 1 17 21
M  V30 21 1 18 22
M  V30 22 2 19 23
M  V30 23 1 20 24
M  V30 24 2 22 25
M  V30 25 1 25 26
M  V30 26 2 26 27
M  V30 27 1 26 28
M  V30 28 1 28 29
M  V30 29 1 29 30
M  V30 30 1 29 31 CFG=1
M  V30 31 2 30 32
M  V30 32 1 30 33
M  V30 33 1 32 34
M  V30 34 2 33 35
M  V30 35 2 34 36
M  V30 36 1 36 37
M  V30 37 1 37 38
M  V30 38 1 37 39
M  V30 39 1 37 40
M  V30 40 1 7 9
M  V30 41 1 18 20
M  V30 42 1 23 25
M  V30 43 1 35 36
M  V30 END BOND
M  V30 BEGIN COLLECTION
M  V30 MDLV30/STEABS ATOMS=(2 8 29)
M  V30 END COLLECTION
M  V30 END CTAB
M  END
>  <Molecule ChEMBL ID>
CHEMBL3678128

>  <Smiles>
Cc1c(C)n(Cc2ccc(Cl)c(O[C@@H](C)C(=O)O)c2)c2ccc(C(=O)N[C@@H](C)c3ccc(C(C)(C)C)cc3)cc12

>  <IC50_nM>
0.2

>  <Assay Description>
Lanthascreen Competitive Binding Assay: The assay was performed according to manufacturer protocol. A mixture of 5 nM GST-PPARG-LBD, 5 nM Tb-GST-antibody, 5 nM Fluormone Pan- PPAR Green, and serial dilutions of the experimental compound, beginning at 10 ׬� downwards, was added to wells of black 384-well low- volume plates (Greiner) to a total volume of 18 xL. All dilutions were made in TR-FRET assay buffer C. DMSO at 2% final concentration was used as a no-ligand control. Experiment was performed in triplicate, and incubated for 2 hours in the dark prior to assay read in Perkin Elmer ViewLux ultra HTS microplate reader. FRET signal was measured by excitation at 340 nm and emission at 520 nm for fluorescein and 490 nm for terbium.

$$$$
CHEMBL5187164
Actelion Java MolfileCreator 2.0

  0  0  0  0  0  0              0 V3000
M  V30 BEGIN CTAB
M  V30 COUNTS 30 33 0 0 0
M  V30 BEGIN ATOM
M  V30 1 Br 1.732 1.4999 0.0 0
M  V30 2 C 2.598 1.0 0.0 0
M  V30 3 C 2.598 0.0 0.0 0
M  V30 4 C 3.4641 1.4999 0.0 0
M  V30 5 C 1.732 -0.5 0.0 0
M  V30 6 C 3.4641 -0.5 0.0 0
M  V30 7 C 4.3301 1.0 0.0 0
M  V30 8 O 1.732 -1.5 0.0 0
M  V30 9 N 0.866 0.0 0.0 0
M  V30 10 C 4.3301 0.0 0.0 0
M  V30 11 C 0.0 -0.5 0.0 0
M  V30 12 N 5.1961 -0.5 0.0 0 CHG=1
M  V30 13 C -0.866 0.0 0.0 0
M  V30 14 C 0.0 -1.5 0.0 0
M  V30 15 O 5.1961 -1.5 0.0 0
M  V30 16 O 6.0621 0.0 0.0 0 CHG=-1
M  V30 17 C -1.732 -0.4999 0.0 0
M  V30 18 C -0.866 -1.9999 0.0 0
M  V30 19 N -2.6831 -0.1909 0.0 0
M  V30 20 C -1.732 -1.4999 0.0 0
M  V30 21 C -3.2708 -0.9999 0.0 0
M  V30 22 O -2.6831 -1.809 0.0 0
M  V30 23 C -4.2708 -0.9999 0.0 0
M  V30 24 C -4.7708 -0.1339 0.0 0
M  V30 25 C -4.7708 -1.866 0.0 0
M  V30 26 C -5.7708 -0.1339 0.0 0
M  V30 27 C -5.7708 -1.866 0.0 0
M  V30 28 C -6.2708 -0.9999 0.0 0
M  V30 29 C -7.2708 -0.9999 0.0 0
M  V30 30 C -7.7708 -1.866 0.0 0
M  V30 END ATOM
M  V30 BEGIN BOND
M  V30 1 1 1 2
M  V30 2 2 2 3
M  V30 3 1 2 4
M  V30 4 1 3 5
M  V30 5 1 3 6
M  V30 6 2 4 7
M  V30 7 2 5 8
M  V30 8 1 5 9
M  V30 9 2 6 10
M  V30 10 1 9 11
M  V30 11 1 10 12
M  V30 12 2 11 13
M  V30 13 1 11 14
M  V30 14 2 12 15
M  V30 15 1 12 16
M  V30 16 1 13 17
M  V30 17 2 14 18
M  V30 18 1 17 19
M  V30 19 2 17 20
M  V30 20 2 19 21
M  V30 21 1 20 22
M  V30 22 1 21 23
M  V30 23 2 23 24
M  V30 24 1 23 25
M  V30 25 1 24 26
M  V30 26 2 25 27
M  V30 27 2 26 28
M  V30 28 1 28 29
M  V30 29 1 29 30
M  V30 30 1 7 10
M  V30 31 1 18 20
M  V30 32 1 21 22
M  V30 33 1 27 28
M  V30 END BOND
M  V30 END CTAB
M  END
>  <Molecule ChEMBL ID>
CHEMBL5187164

>  <Smiles>
CCc1ccc(-c2nc3cc(NC(=O)c4cc([N+](=O)[O-])ccc4Br)ccc3o2)cc1

>  <IC50_nM>
0.22

>  <Assay Description>
Inverse agonist activity at PPARgamma in human RT112/84-FABP4 cells assessed as reduction in PPARgamma transactivation measured by Nanoluciferase reporter gene assay

$$$$
CHEMBL5179281
Actelion Java MolfileCreator 2.0

  0  0  0  0  0  0              0 V3000
M  V30 BEGIN CTAB
M  V30 COUNTS 31 34 0 0 0
M  V30 BEGIN ATOM
M  V30 1 Cl 1.732 1.4999 0.0 0
M  V30 2 C 2.598 1.0 0.0 0
M  V30 3 C 2.598 0.0 0.0 0
M  V30 4 C 3.4641 1.4999 0.0 0
M  V30 5 C 1.732 -0.5 0.0 0
M  V30 6 C 3.4641 -0.5 0.0 0
M  V30 7 C 4.3301 1.0 0.0 0
M  V30 8 O 1.732 -1.5 0.0 0
M  V30 9 N 0.866 0.0 0.0 0
M  V30 10 C 4.3301 0.0 0.0 0
M  V30 11 C 0.0 -0.5 0.0 0
M  V30 12 N 5.1961 -0.5 0.0 0 CHG=1
M  V30 13 C -0.866 0.0 0.0 0
M  V30 14 C 0.0 -1.5 0.0 0
M  V30 15 O 5.1961 -1.5 0.0 0
M  V30 16 O 6.0621 0.0 0.0 0 CHG=-1
M  V30 17 C -1.732 -0.4999 0.0 0
M  V30 18 C -0.866 -1.9999 0.0 0
M  V30 19 N -2.6831 -0.1909 0.0 0
M  V30 20 C -1.732 -1.4999 0.0 0
M  V30 21 C -3.2708 -0.9999 0.0 0
M  V30 22 O -2.6831 -1.809 0.0 0
M  V30 23 C -4.2708 -0.9999 0.0 0
M  V30 24 C -4.7708 -0.1339 0.0 0
M  V30 25 C -4.7708 -1.866 0.0 0
M  V30 26 C -5.7708 -0.1339 0.0 0
M  V30 27 C -5.7708 -1.866 0.0 0
M  V30 28 F -6.2708 0.732 0.0 0
M  V30 29 C -6.2708 -0.9999 0.0 0
M  V30 30 O -7.2708 -0.9999 0.0 0
M  V30 31 C -7.7708 -1.866 0.0 0
M  V30 END ATOM
M  V30 BEGIN BOND
M  V30 1 1 1 2
M  V30 2 2 2 3
M  V30 3 1 2 4
M  V30 4 1 3 5
M  V30 5 1 3 6
M  V30 6 2 4 7
M  V30 7 2 5 8
M  V30 8 1 5 9
M  V30 9 2 6 10
M  V30 10 1 9 11
M  V30 11 1 10 12
M  V30 12 2 11 13
M  V30 13 1 11 14
M  V30 14 2 12 15
M  V30 15 1 12 16
M  V30 16 1 13 17
M  V30 17 2 14 18
M  V30 18 1 17 19
M  V30 19 2 17 20
M  V30 20 2 19 21
M  V30 21 1 20 22
M  V30 22 1 21 23
M  V30 23 2 23 24
M  V30 24 1 23 25
M  V30 25 1 24 26
M  V30 26 2 25 27
M  V30 27 1 26 28
M  V30 28 2 26 29
M  V30 29 1 29 30
M  V30 30 1 30 31
M  V30 31 1 7 10
M  V30 32 1 18 20
M  V30 33 1 21 22
M  V30 34 1 27 29
M  V30 END BOND
M  V30 END CTAB
M  END
>  <Molecule ChEMBL ID>
CHEMBL5179281

>  <Smiles>
COc1ccc(-c2nc3cc(NC(=O)c4cc([N+](=O)[O-])ccc4Cl)ccc3o2)cc1F

>  <IC50_nM>
0.23

>  <Assay Description>
Inverse agonist activity at PPARgamma in human RT112/84-FABP4 cells assessed as reduction in PPARgamma transactivation measured by Nanoluciferase reporter gene assay

$$$$
CHEMBL5206512
Actelion Java MolfileCreator 2.0

  0  0  0  0  0  0              0 V3000
M  V30 BEGIN CTAB
M  V30 COUNTS 30 33 0 0 0
M  V30 BEGIN ATOM
M  V30 1 Cl 1.732 1.4999 0.0 0
M  V30 2 C 2.598 1.0 0.0 0
M  V30 3 C 2.598 0.0 0.0 0
M  V30 4 C 3.4641 1.4999 0.0 0
M  V30 5 C 1.732 -0.5 0.0 0
M  V30 6 C 3.4641 -0.5 0.0 0
M  V30 7 C 4.3301 1.0 0.0 0
M  V30 8 O 1.732 -1.5 0.0 0
M  V30 9 N 0.866 0.0 0.0 0
M  V30 10 C 4.3301 0.0 0.0 0
M  V30 11 C 0.0 -0.5 0.0 0
M  V30 12 N 5.1961 -0.5 0.0 0 CHG=1
M  V30 13 C -0.866 0.0 0.0 0
M  V30 14 C 0.0 -1.5 0.0 0
M  V30 15 O 5.1961 -1.5 0.0 0
M  V30 16 O 6.0621 0.0 0.0 0 CHG=-1
M  V30 17 C -1.732 -0.4999 0.0 0
M  V30 18 C -0.866 -1.9999 0.0 0
M  V30 19 N -2.6831 -0.1909 0.0 0
M  V30 20 C -1.732 -1.4999 0.0 0
M  V30 21 C -3.2708 -0.9999 0.0 0
M  V30 22 O -2.6831 -1.809 0.0 0
M  V30 23 C -4.2708 -0.9999 0.0 0
M  V30 24 C -4.7708 -0.1339 0.0 0
M  V30 25 C -4.7708 -1.866 0.0 0
M  V30 26 N -5.7708 -0.1339 0.0 0
M  V30 27 C -5.7708 -1.866 0.0 0
M  V30 28 C -6.2708 -0.9999 0.0 0
M  V30 29 C -7.2708 -0.9999 0.0 0
M  V30 30 C -7.7708 -1.866 0.0 0
M  V30 END ATOM
M  V30 BEGIN BOND
M  V30 1 1 1 2
M  V30 2 2 2 3
M  V30 3 1 2 4
M  V30 4 1 3 5
M  V30 5 1 3 6
M  V30 6 2 4 7
M  V30 7 2 5 8
M  V30 8 1 5 9
M  V30 9 2 6 10
M  V30 10 1 9 11
M  V30 11 1 10 12
M  V30 12 2 11 13
M  V30 13 1 11 14
M  V30 14 2 12 15
M  V30 15 1 12 16
M  V30 16 1 13 17
M  V30 17 2 14 18
M  V30 18 1 17 19
M  V30 19 2 17 20
M  V30 20 2 19 21
M  V30 21 1 20 22
M  V30 22 1 21 23
M  V30 23 2 23 24
M  V30 24 1 23 25
M  V30 25 1 24 26
M  V30 26 2 25 27
M  V30 27 2 26 28
M  V30 28 1 28 29
M  V30 29 1 29 30
M  V30 30 1 7 10
M  V30 31 1 18 20
M  V30 32 1 21 22
M  V30 33 1 27 28
M  V30 END BOND
M  V30 END CTAB
M  END
>  <Molecule ChEMBL ID>
CHEMBL5206512

>  <Smiles>
CCc1ccc(-c2nc3cc(NC(=O)c4cc([N+](=O)[O-])ccc4Cl)ccc3o2)cn1

>  <IC50_nM>
0.25

>  <Assay Description>
Inverse agonist activity at PPARgamma in human RT112/84-FABP4 cells assessed as reduction in PPARgamma transactivation measured by Nanoluciferase reporter gene assay

$$$$
CHEMBL5207464
Actelion Java MolfileCreator 2.0

  0  0  0  0  0  0              0 V3000
M  V30 BEGIN CTAB
M  V30 COUNTS 30 33 0 0 0
M  V30 BEGIN ATOM
M  V30 1 I 1.732 1.4999 0.0 0
M  V30 2 C 2.598 1.0 0.0 0
M  V30 3 C 2.598 0.0 0.0 0
M  V30 4 C 3.4641 1.4999 0.0 0
M  V30 5 C 1.732 -0.5 0.0 0
M  V30 6 C 3.4641 -0.5 0.0 0
M  V30 7 C 4.3301 1.0 0.0 0
M  V30 8 O 1.732 -1.5 0.0 0
M  V30 9 N 0.866 0.0 0.0 0
M  V30 10 C 4.3301 0.0 0.0 0
M  V30 11 C 0.0 -0.5 0.0 0
M  V30 12 N 5.1961 -0.5 0.0 0 CHG=1
M  V30 13 C -0.866 0.0 0.0 0
M  V30 14 C 0.0 -1.5 0.0 0
M  V30 15 O 5.1961 -1.5 0.0 0
M  V30 16 O 6.0621 0.0 0.0 0 CHG=-1
M  V30 17 C -1.732 -0.4999 0.0 0
M  V30 18 C -0.866 -1.9999 0.0 0
M  V30 19 N -2.6831 -0.1909 0.0 0
M  V30 20 C -1.732 -1.4999 0.0 0
M  V30 21 C -3.2708 -0.9999 0.0 0
M  V30 22 O -2.6831 -1.809 0.0 0
M  V30 23 C -4.2708 -0.9999 0.0 0
M  V30 24 C -4.7708 -0.1339 0.0 0
M  V30 25 C -4.7708 -1.866 0.0 0
M  V30 26 C -5.7708 -0.1339 0.0 0
M  V30 27 C -5.7708 -1.866 0.0 0
M  V30 28 C -6.2708 -0.9999 0.0 0
M  V30 29 C -7.2708 -0.9999 0.0 0
M  V30 30 C -7.7708 -1.866 0.0 0
M  V30 END ATOM
M  V30 BEGIN BOND
M  V30 1 1 1 2
M  V30 2 2 2 3
M  V30 3 1 2 4
M  V30 4 1 3 5
M  V30 5 1 3 6
M  V30 6 2 4 7
M  V30 7 2 5 8
M  V30 8 1 5 9
M  V30 9 2 6 10
M  V30 10 1 9 11
M  V30 11 1 10 12
M  V30 12 2 11 13
M  V30 13 1 11 14
M  V30 14 2 12 15
M  V30 15 1 12 16
M  V30 16 1 13 17
M  V30 17 2 14 18
M  V30 18 1 17 19
M  V30 19 2 17 20
M  V30 20 2 19 21
M  V30 21 1 20 22
M  V30 22 1 21 23
M  V30 23 2 23 24
M  V30 24 1 23 25
M  V30 25 1 24 26
M  V30 26 2 25 27
M  V30 27 2 26 28
M  V30 28 1 28 29
M  V30 29 1 29 30
M  V30 30 1 7 10
M  V30 31 1 18 20
M  V30 32 1 21 22
M  V30 33 1 27 28
M  V30 END BOND
M  V30 END CTAB
M  END
>  <Molecule ChEMBL ID>
CHEMBL5207464

>  <Smiles>
CCc1ccc(-c2nc3cc(NC(=O)c4cc([N+](=O)[O-])ccc4I)ccc3o2)cc1

>  <IC50_nM>
0.29

>  <Assay Description>
Inverse agonist activity at PPARgamma in human RT112/84-FABP4 cells assessed as reduction in PPARgamma transactivation measured by Nanoluciferase reporter gene assay

$$$$
CHEMBL3678133
Actelion Java MolfileCreator 2.0

  0  0  0  0  0  0              0 V3000
M  V30 BEGIN CTAB
M  V30 COUNTS 37 40 0 0 0
M  V30 BEGIN ATOM
M  V30 1 Br 6.0621 -1.9999 0.0 0
M  V30 2 C 5.1961 -1.4999 0.0 0
M  V30 3 C 5.1961 -0.5 0.0 0
M  V30 4 C 4.3301 -1.9999 0.0 0
M  V30 5 C 4.3301 0.0 0.0 0
M  V30 6 C 3.4641 -1.5 0.0 0
M  V30 7 C 3.4641 -0.5 0.0 0
M  V30 8 C 2.598 0.0 0.0 0 CFG=1
M  V30 9 N 1.732 -0.5 0.0 0
M  V30 10 C 2.598 1.0 0.0 0
M  V30 11 C 0.866 0.0 0.0 0
M  V30 12 O 0.866 1.0 0.0 0
M  V30 13 C 0.0 -0.5 0.0 0
M  V30 14 C 0.0 -1.4999 0.0 0
M  V30 15 C -0.866 0.0 0.0 0
M  V30 16 C -0.866 -1.9999 0.0 0
M  V30 17 C -1.732 -0.4999 0.0 0
M  V30 18 C -1.732 -1.4999 0.0 0
M  V30 19 C -1.0739 -2.9781 0.0 0
M  V30 20 N -2.4751 -2.1691 0.0 0
M  V30 21 C -2.0684 -3.0826 0.0 0
M  V30 22 C -0.4048 -3.7212 0.0 0
M  V30 23 C -3.4533 -1.9612 0.0 0
M  V30 24 C -2.5684 -3.9487 0.0 0
M  V30 25 C -4.1224 -2.7043 0.0 0
M  V30 26 C -5.1006 -2.4964 0.0 0
M  V30 27 C -3.8134 -3.6554 0.0 0
M  V30 28 Cl -5.4096 -1.5453 0.0 0
M  V30 29 C -5.7697 -3.2395 0.0 0
M  V30 30 C -4.4825 -4.3985 0.0 0
M  V30 31 C -5.4607 -4.1906 0.0 0
M  V30 32 O -4.1735 -5.3496 0.0 0
M  V30 33 C -3.1954 -5.5575 0.0 0 CFG=2
M  V30 34 C -2.8864 -6.5085 0.0 0
M  V30 35 C -2.5262 -4.8143 0.0 0
M  V30 36 O -3.5555 -7.2517 0.0 0
M  V30 37 O -1.9082 -6.7165 0.0 0
M  V30 END ATOM
M  V30 BEGIN BOND
M  V30 1 1 1 2
M  V30 2 2 2 3
M  V30 3 1 2 4
M  V30 4 1 3 5
M  V30 5 2 4 6
M  V30 6 2 5 7
M  V30 7 1 7 8
M  V30 8 1 8 9
M  V30 9 1 8 10 CFG=1
M  V30 10 1 9 11
M  V30 11 2 11 12
M  V30 12 1 11 13
M  V30 13 2 13 14
M  V30 14 1 13 15
M  V30 15 1 14 16
M  V30 16 2 15 17
M  V30 17 2 16 18
M  V30 18 1 16 19
M  V30 19 1 18 20
M  V30 20 2 19 21
M  V30 21 1 19 22
M  V30 22 1 20 23
M  V30 23 1 21 24
M  V30 24 1 23 25
M  V30 25 2 25 26
M  V30 26 1 25 27
M  V30 27 1 26 28
M  V30 28 1 26 29
M  V30 29 2 27 30
M  V30 30 2 29 31
M  V30 31 1 30 32
M  V30 32 1 32 33
M  V30 33 1 33 34
M  V30 34 1 33 35 CFG=1
M  V30 35 2 34 36
M  V30 36 1 34 37
M  V30 37 1 6 7
M  V30 38 1 17 18
M  V30 39 1 20 21
M  V30 40 1 30 31
M  V30 END BOND
M  V30 BEGIN COLLECTION
M  V30 MDLV30/STEABS ATOMS=(2 8 33)
M  V30 END COLLECTION
M  V30 END CTAB
M  END
>  <Molecule ChEMBL ID>
CHEMBL3678133

>  <Smiles>
Cc1c(C)n(Cc2cc(O[C@@H](C)C(=O)O)ccc2Cl)c2ccc(C(=O)N[C@@H](C)c3ccc(Br)cc3)cc12

>  <IC50_nM>
0.3

>  <Assay Description>
Lanthascreen Competitive Binding Assay: The assay was performed according to manufacturer protocol. A mixture of 5 nM GST-PPARG-LBD, 5 nM Tb-GST-antibody, 5 nM Fluormone Pan- PPAR Green, and serial dilutions of the experimental compound, beginning at 10 ׬� downwards, was added to wells of black 384-well low- volume plates (Greiner) to a total volume of 18 xL. All dilutions were made in TR-FRET assay buffer C. DMSO at 2% final concentration was used as a no-ligand control. Experiment was performed in triplicate, and incubated for 2 hours in the dark prior to assay read in Perkin Elmer ViewLux ultra HTS microplate reader. FRET signal was measured by excitation at 340 nm and emission at 520 nm for fluorescein and 490 nm for terbium.

$$$$
CHEMBL5204936
Actelion Java MolfileCreator 2.0

  0  0  0  0  0  0              0 V3000
M  V30 BEGIN CTAB
M  V30 COUNTS 29 32 0 0 0
M  V30 BEGIN ATOM
M  V30 1 Cl 1.732 1.4999 0.0 0
M  V30 2 C 2.598 1.0 0.0 0
M  V30 3 C 2.598 0.0 0.0 0
M  V30 4 C 3.4641 1.4999 0.0 0
M  V30 5 C 1.732 -0.5 0.0 0
M  V30 6 C 3.4641 -0.5 0.0 0
M  V30 7 C 4.3301 1.0 0.0 0
M  V30 8 O 1.732 -1.5 0.0 0
M  V30 9 N 0.866 0.0 0.0 0
M  V30 10 C 4.3301 0.0 0.0 0
M  V30 11 C 0.0 -0.5 0.0 0
M  V30 12 N 5.1961 -0.5 0.0 0 CHG=1
M  V30 13 C -0.866 0.0 0.0 0
M  V30 14 C 0.0 -1.5 0.0 0
M  V30 15 O 5.1961 -1.5 0.0 0
M  V30 16 O 6.0621 0.0 0.0 0 CHG=-1
M  V30 17 C -1.732 -0.4999 0.0 0
M  V30 18 C -0.866 -1.9999 0.0 0
M  V30 19 N -2.6831 -0.1909 0.0 0
M  V30 20 C -1.732 -1.4999 0.0 0
M  V30 21 N -3.2708 -0.9999 0.0 0
M  V30 22 N -2.6831 -1.809 0.0 0
M  V30 23 C -4.2708 -0.9999 0.0 0
M  V30 24 C -4.7708 -0.1339 0.0 0
M  V30 25 C -4.7708 -1.866 0.0 0
M  V30 26 C -5.7708 -0.1339 0.0 0
M  V30 27 C -5.7708 -1.866 0.0 0
M  V30 28 C -6.2708 -0.9999 0.0 0
M  V30 29 C -7.2708 -0.9999 0.0 0
M  V30 END ATOM
M  V30 BEGIN BOND
M  V30 1 1 1 2
M  V30 2 2 2 3
M  V30 3 1 2 4
M  V30 4 1 3 5
M  V30 5 1 3 6
M  V30 6 2 4 7
M  V30 7 2 5 8
M  V30 8 1 5 9
M  V30 9 2 6 10
M  V30 10 1 9 11
M  V30 11 1 10 12
M  V30 12 2 11 13
M  V30 13 1 11 14
M  V30 14 2 12 15
M  V30 15 1 12 16
M  V30 16 1 13 17
M  V30 17 2 14 18
M  V30 18 2 17 19
M  V30 19 1 17 20
M  V30 20 1 19 21
M  V30 21 2 20 22
M  V30 22 1 21 23
M  V30 23 2 23 24
M  V30 24 1 23 25
M  V30 25 1 24 26
M  V30 26 2 25 27
M  V30 27 2 26 28
M  V30 28 1 28 29
M  V30 29 1 7 10
M  V30 30 1 18 20
M  V30 31 1 21 22
M  V30 32 1 27 28
M  V30 END BOND
M  V30 END CTAB
M  END
>  <Molecule ChEMBL ID>
CHEMBL5204936

>  <Smiles>
Cc1ccc(-n2nc3ccc(NC(=O)c4cc([N+](=O)[O-])ccc4Cl)cc3n2)cc1

>  <IC50_nM>
0.32

>  <Assay Description>
Inverse agonist activity at PPARgamma in human RT112/84-FABP4 cells assessed as reduction in PPARgamma transactivation measured by Nanoluciferase reporter gene assay

$$$$
CHEMBL602468
Actelion Java MolfileCreator 2.0

  0  0  0  0  0  0              0 V3000
M  V30 BEGIN CTAB
M  V30 COUNTS 39 43 0 0 0
M  V30 BEGIN ATOM
M  V30 1 O 11.1837 5.7369 0.0 0
M  V30 2 C 10.8747 4.7859 0.0 0
M  V30 3 O 9.8965 4.578 0.0 0
M  V30 4 C 11.5438 4.0427 0.0 0
M  V30 5 C 11.2348 3.0917 0.0 0
M  V30 6 C 12.522 4.2506 0.0 0
M  V30 7 C 10.2566 2.8838 0.0 0
M  V30 8 C 11.9039 2.3485 0.0 0
M  V30 9 C 13.1911 3.5075 0.0 0
M  V30 10 C 9.5875 3.6269 0.0 0
M  V30 11 C 9.9476 1.9327 0.0 0
M  V30 12 C 12.8821 2.5564 0.0 0
M  V30 13 C 8.6094 3.419 0.0 0
M  V30 14 C 8.9695 1.7248 0.0 0
M  V30 15 C 8.3003 2.4679 0.0 0
M  V30 16 C 7.3222 2.26 0.0 0
M  V30 17 N 7.0132 1.309 0.0 0
M  V30 18 C 6.0621 0.9999 0.0 0
M  V30 19 C 7.601 0.5 0.0 0
M  V30 20 C 6.0621 0.0 0.0 0
M  V30 21 C 5.1961 1.4999 0.0 0
M  V30 22 C 7.0132 -0.309 0.0 0
M  V30 23 C 8.601 0.5 0.0 0
M  V30 24 C 5.1961 -0.5 0.0 0
M  V30 25 C 4.3301 0.9999 0.0 0
M  V30 26 C 7.3222 -1.26 0.0 0
M  V30 27 C 4.3301 0.0 0.0 0
M  V30 28 C 3.4641 -0.5 0.0 0
M  V30 29 O 3.4641 -1.5 0.0 0
M  V30 30 N 2.598 0.0 0.0 0
M  V30 31 C 1.732 -0.5 0.0 0 CFG=2
M  V30 32 C 1.732 -1.5 0.0 0
M  V30 33 C 0.866 0.0 0.0 0
M  V30 34 C 0.866 -1.9999 0.0 0
M  V30 35 C 2.598 -2.0 0.0 0
M  V30 36 C 0.0 -0.5 0.0 0
M  V30 37 C 0.866 -2.9999 0.0 0
M  V30 38 C 2.598 -3.0 0.0 0
M  V30 39 C 1.732 -3.5 0.0 0
M  V30 END ATOM
M  V30 BEGIN BOND
M  V30 1 2 1 2
M  V30 2 1 2 3
M  V30 3 1 2 4
M  V30 4 2 4 5
M  V30 5 1 4 6
M  V30 6 1 5 7
M  V30 7 1 5 8
M  V30 8 2 6 9
M  V30 9 2 7 10
M  V30 10 1 7 11
M  V30 11 2 8 12
M  V30 12 1 10 13
M  V30 13 2 11 14
M  V30 14 2 13 15
M  V30 15 1 15 16
M  V30 16 1 16 17
M  V30 17 1 17 18
M  V30 18 1 17 19
M  V30 19 2 18 20
M  V30 20 1 18 21
M  V30 21 2 19 22
M  V30 22 1 19 23
M  V30 23 1 20 24
M  V30 24 2 21 25
M  V30 25 1 22 26
M  V30 26 2 24 27
M  V30 27 1 27 28
M  V30 28 2 28 29
M  V30 29 1 28 30
M  V30 30 1 31 30 CFG=3
M  V30 31 1 31 32
M  V30 32 1 31 33
M  V30 33 2 32 34
M  V30 34 1 32 35
M  V30 35 1 33 36
M  V30 36 1 34 37
M  V30 37 2 35 38
M  V30 38 2 37 39
M  V30 39 1 9 12
M  V30 40 1 14 15
M  V30 41 1 20 22
M  V30 42 1 25 27
M  V30 43 1 38 39
M  V30 END BOND
M  V30 BEGIN COLLECTION
M  V30 MDLV30/STERAC1 ATOMS=(1 31)
M  V30 END COLLECTION
M  V30 END CTAB
M  END
>  <Molecule ChEMBL ID>
CHEMBL602468

>  <Smiles>
CCC(NC(=O)c1ccc2c(c1)c(C)c(C)n2Cc1ccc(-c2ccccc2C(=O)O)cc1)c1ccccc1

>  <IC50_nM>
0.37

>  <Assay Description>
Binding affinity to GST-tagged PPAR-gamma-LBD (unknown origin) after 2 hrs by Lantha screen assay using fluormone Pan-PPAR green probe

$$$$
CHEMBL5207130
Actelion Java MolfileCreator 2.0

  0  0  0  0  0  0              0 V3000
M  V30 BEGIN CTAB
M  V30 COUNTS 30 33 0 0 0
M  V30 BEGIN ATOM
M  V30 1 Cl 1.732 1.4999 0.0 0
M  V30 2 C 2.598 1.0 0.0 0
M  V30 3 C 2.598 0.0 0.0 0
M  V30 4 C 3.4641 1.4999 0.0 0
M  V30 5 C 1.732 -0.5 0.0 0
M  V30 6 C 3.4641 -0.5 0.0 0
M  V30 7 C 4.3301 1.0 0.0 0
M  V30 8 O 1.732 -1.5 0.0 0
M  V30 9 N 0.866 0.0 0.0 0
M  V30 10 C 4.3301 0.0 0.0 0
M  V30 11 C 0.0 -0.5 0.0 0
M  V30 12 N 5.1961 -0.5 0.0 0 CHG=1
M  V30 13 C -0.866 0.0 0.0 0
M  V30 14 C 0.0 -1.5 0.0 0
M  V30 15 O 5.1961 -1.5 0.0 0
M  V30 16 O 6.0621 0.0 0.0 0 CHG=-1
M  V30 17 C -1.732 -0.4999 0.0 0
M  V30 18 C -0.866 -1.9999 0.0 0
M  V30 19 N -2.6831 -0.1909 0.0 0
M  V30 20 C -1.732 -1.4999 0.0 0
M  V30 21 C -3.2708 -0.9999 0.0 0
M  V30 22 O -2.6831 -1.809 0.0 0
M  V30 23 C -4.2708 -0.9999 0.0 0
M  V30 24 C -4.7708 -0.1339 0.0 0
M  V30 25 C -4.7708 -1.866 0.0 0
M  V30 26 C -5.7708 -0.1339 0.0 0
M  V30 27 C -5.7708 -1.866 0.0 0
M  V30 28 C -6.2708 -0.9999 0.0 0
M  V30 29 C -7.2708 -0.9999 0.0 0
M  V30 30 C -7.7708 -1.866 0.0 0
M  V30 END ATOM
M  V30 BEGIN BOND
M  V30 1 1 1 2
M  V30 2 2 2 3
M  V30 3 1 2 4
M  V30 4 1 3 5
M  V30 5 1 3 6
M  V30 6 2 4 7
M  V30 7 2 5 8
M  V30 8 1 5 9
M  V30 9 2 6 10
M  V30 10 1 9 11
M  V30 11 1 10 12
M  V30 12 2 11 13
M  V30 13 1 11 14
M  V30 14 2 12 15
M  V30 15 1 12 16
M  V30 16 1 13 17
M  V30 17 2 14 18
M  V30 18 1 17 19
M  V30 19 2 17 20
M  V30 20 2 19 21
M  V30 21 1 20 22
M  V30 22 1 21 23
M  V30 23 2 23 24
M  V30 24 1 23 25
M  V30 25 1 24 26
M  V30 26 2 25 27
M  V30 27 2 26 28
M  V30 28 1 28 29
M  V30 29 1 29 30
M  V30 30 1 7 10
M  V30 31 1 18 20
M  V30 32 1 21 22
M  V30 33 1 27 28
M  V30 END BOND
M  V30 END CTAB
M  END
>  <Molecule ChEMBL ID>
CHEMBL5207130

>  <Smiles>
CCc1ccc(-c2nc3cc(NC(=O)c4cc([N+](=O)[O-])ccc4Cl)ccc3o2)cc1

>  <IC50_nM>
0.4

>  <Assay Description>
Inverse agonist activity at GAL4-tagged human PPARgamma LBD expressed in CHO cells measured after 6 hrs by firefly luciferase reporter assay

$$$$
CHEMBL3695782
Actelion Java MolfileCreator 2.0

  0  0  0  0  0  0              0 V3000
M  V30 BEGIN CTAB
M  V30 COUNTS 39 43 0 0 0
M  V30 BEGIN ATOM
M  V30 1 O 17.7889 -5.3503 0.0 0
M  V30 2 C 16.3217 -5.6622 0.0 0
M  V30 3 O 15.318 -4.5475 0.0 0
M  V30 4 C 15.8581 -7.0888 0.0 0
M  V30 5 C 14.3909 -7.4007 0.0 0
M  V30 6 C 16.8618 -8.2035 0.0 0
M  V30 7 C 13.3872 -6.2859 0.0 0
M  V30 8 C 13.9274 -8.8272 0.0 0
M  V30 9 C 16.3983 -9.6301 0.0 0
M  V30 10 C 13.8507 -4.8594 0.0 0
M  V30 11 C 11.92 -6.5978 0.0 0
M  V30 12 C 14.9311 -9.942 0.0 0
M  V30 13 C 12.847 -3.7446 0.0 0
M  V30 14 C 10.9163 -5.4831 0.0 0
M  V30 15 C 11.3798 -4.0565 0.0 0
M  V30 16 C 10.3761 -2.9418 0.0 0
M  V30 17 N 8.9089 -3.2536 0.0 0
M  V30 18 C 7.7942 -2.25 0.0 0
M  V30 19 C 8.2988 -4.624 0.0 0
M  V30 20 C 6.4951 -3.0 0.0 0
M  V30 21 C 7.7942 -0.75 0.0 0
M  V30 22 C 6.807 -4.4672 0.0 0
M  V30 23 C 9.0488 -5.923 0.0 0
M  V30 24 C 5.1961 -2.25 0.0 0
M  V30 25 C 6.4951 0.0 0.0 0
M  V30 26 C 5.8033 -5.5819 0.0 0
M  V30 27 C 5.1961 -0.75 0.0 0
M  V30 28 C 3.8971 0.0 0.0 0
M  V30 29 O 3.8971 1.5 0.0 0
M  V30 30 N 2.598 -0.75 0.0 0
M  V30 31 C 1.299 0.0 0.0 0
M  V30 32 C 0.0 -0.75 0.0 0
M  V30 33 C 2.049 1.299 0.0 0
M  V30 34 C 0.549 1.299 0.0 0
M  V30 35 C -1.299 0.0 0.0 0
M  V30 36 C 0.0 -2.25 0.0 0
M  V30 37 C -2.598 -0.75 0.0 0
M  V30 38 C -1.299 -3.0 0.0 0
M  V30 39 C -2.598 -2.25 0.0 0
M  V30 END ATOM
M  V30 BEGIN BOND
M  V30 1 2 1 2
M  V30 2 1 2 3
M  V30 3 1 2 4
M  V30 4 2 4 5
M  V30 5 1 4 6
M  V30 6 1 5 7
M  V30 7 1 5 8
M  V30 8 2 6 9
M  V30 9 2 7 10
M  V30 10 1 7 11
M  V30 11 2 8 12
M  V30 12 1 10 13
M  V30 13 2 11 14
M  V30 14 2 13 15
M  V30 15 1 15 16
M  V30 16 1 16 17
M  V30 17 1 17 18
M  V30 18 1 17 19
M  V30 19 2 18 20
M  V30 20 1 18 21
M  V30 21 2 19 22
M  V30 22 1 19 23
M  V30 23 1 20 24
M  V30 24 2 21 25
M  V30 25 1 22 26
M  V30 26 2 24 27
M  V30 27 1 27 28
M  V30 28 2 28 29
M  V30 29 1 28 30
M  V30 30 1 30 31
M  V30 31 1 31 32
M  V30 32 1 31 33
M  V30 33 1 31 34
M  V30 34 2 32 35
M  V30 35 1 32 36
M  V30 36 1 35 37
M  V30 37 2 36 38
M  V30 38 2 37 39
M  V30 39 1 9 12
M  V30 40 1 14 15
M  V30 41 1 20 22
M  V30 42 1 25 27
M  V30 43 1 38 39
M  V30 END BOND
M  V30 END CTAB
M  END
>  <Molecule ChEMBL ID>
CHEMBL3695782

>  <Smiles>
Cc1c(C)n(Cc2ccc(-c3ccccc3C(=O)O)cc2)c2ccc(C(=O)NC(C)(C)c3ccccc3)cc12

>  <IC50_nM>
0.5

>  <Assay Description>
Lanthascreen Competitive Binding Assay: The assay was performed according to manufacturer protocol. A mixture of nM GST-PPARG-LBD, 5 nM Tb-GST-antibody, 5 nM Fluormone Pan-PPAR Green, and serial dilutions of the experimental compound, beginning at 10 ׬M downwards, was added to wells of black 384-well low-volume plates (Greiner) to a total volume of 18 ׬L. All dilutions were made in TR-FRET assay buffer C. DMSO at 2% final concentration was used as a no-ligand control. Experiment was performed in triplicate, and incubated for 2 hours in the dark prior to assay read in Perkin Elmer ViewLux ultra HTS microplate reader. FRET signal was measured by excitation at 340 nm and emission at 520 nm for fluorescein and 490 nm for terbium. Fold change over DMSO was calculated using GraphPad Prism Software (La Jolla, Calif.) by calculating 520 nm/490 nm ratio. Graphs were plotted as fold change of FRET signal for compound treatment over DMSO-only control.

$$$$
CHEMBL3695780
Actelion Java MolfileCreator 2.0

  0  0  0  0  0  0              0 V3000
M  V30 BEGIN CTAB
M  V30 COUNTS 40 44 0 0 0
M  V30 BEGIN ATOM
M  V30 1 O 11.8592 -3.5669 0.0 0
M  V30 2 C 10.8811 -3.7748 0.0 0
M  V30 3 O 10.212 -3.0316 0.0 0
M  V30 4 C 10.5721 -4.7258 0.0 0
M  V30 5 C 9.5939 -4.9337 0.0 0
M  V30 6 C 11.2412 -5.469 0.0 0
M  V30 7 C 8.9248 -4.1906 0.0 0
M  V30 8 C 9.2849 -5.8848 0.0 0
M  V30 9 C 10.9322 -6.42 0.0 0
M  V30 10 C 9.2338 -3.2395 0.0 0
M  V30 11 C 7.9466 -4.3985 0.0 0
M  V30 12 C 9.954 -6.6279 0.0 0
M  V30 13 C 8.5647 -2.4964 0.0 0
M  V30 14 C 7.2775 -3.6554 0.0 0
M  V30 15 C 7.5865 -2.7043 0.0 0
M  V30 16 C 6.9174 -1.9612 0.0 0
M  V30 17 N 5.9392 -2.1691 0.0 0
M  V30 18 C 5.1961 -1.4999 0.0 0
M  V30 19 C 5.5325 -3.0826 0.0 0
M  V30 20 C 4.3301 -1.9999 0.0 0
M  V30 21 C 5.1961 -0.4999 0.0 0
M  V30 22 C 4.538 -2.9781 0.0 0
M  V30 23 C 6.0325 -3.9487 0.0 0
M  V30 24 C 3.4641 -1.5 0.0 0
M  V30 25 C 4.3301 0.0 0.0 0
M  V30 26 C 3.8689 -3.7212 0.0 0
M  V30 27 C 3.4641 -0.5 0.0 0
M  V30 28 C 2.598 0.0 0.0 0
M  V30 29 O 2.598 1.0 0.0 0
M  V30 30 N 1.732 -0.5 0.0 0
M  V30 31 C 0.866 0.0 0.0 0 CFG=1
M  V30 32 C 0.866 1.0 0.0 0
M  V30 33 C 0.0 -0.5 0.0 0
M  V30 34 C 1.732 1.5 0.0 0
M  V30 35 C 0.0 1.4999 0.0 0
M  V30 36 C 1.732 2.4999 0.0 0
M  V30 37 C 0.0 2.4999 0.0 0
M  V30 38 C 0.866 2.9999 0.0 0
M  V30 39 O 0.866 3.9999 0.0 0
M  V30 40 C 0.0 4.5 0.0 0
M  V30 END ATOM
M  V30 BEGIN BOND
M  V30 1 2 1 2
M  V30 2 1 2 3
M  V30 3 1 2 4
M  V30 4 2 4 5
M  V30 5 1 4 6
M  V30 6 1 5 7
M  V30 7 1 5 8
M  V30 8 2 6 9
M  V30 9 2 7 10
M  V30 10 1 7 11
M  V30 11 2 8 12
M  V30 12 1 10 13
M  V30 13 2 11 14
M  V30 14 2 13 15
M  V30 15 1 15 16
M  V30 16 1 16 17
M  V30 17 1 17 18
M  V30 18 1 17 19
M  V30 19 2 18 20
M  V30 20 1 18 21
M  V30 21 2 19 22
M  V30 22 1 19 23
M  V30 23 1 20 24
M  V30 24 2 21 25
M  V30 25 1 22 26
M  V30 26 2 24 27
M  V30 27 1 27 28
M  V30 28 2 28 29
M  V30 29 1 28 30
M  V30 30 1 30 31
M  V30 31 1 31 32
M  V30 32 1 31 33 CFG=3
M  V30 33 2 32 34
M  V30 34 1 32 35
M  V30 35 1 34 36
M  V30 36 2 35 37
M  V30 37 2 36 38
M  V30 38 1 38 39
M  V30 39 1 39 40
M  V30 40 1 9 12
M  V30 41 1 14 15
M  V30 42 1 20 22
M  V30 43 1 25 27
M  V30 44 1 37 38
M  V30 END BOND
M  V30 BEGIN COLLECTION
M  V30 MDLV30/STEABS ATOMS=(1 31)
M  V30 END COLLECTION
M  V30 END CTAB
M  END
>  <Molecule ChEMBL ID>
CHEMBL3695780

>  <Smiles>
COc1ccc([C@@H](C)NC(=O)c2ccc3c(c2)c(C)c(C)n3Cc2ccc(-c3ccccc3C(=O)O)cc2)cc1

>  <IC50_nM>
0.5

>  <Assay Description>
Lanthascreen Competitive Binding Assay: The assay was performed according to manufacturer protocol. A mixture of nM GST-PPARG-LBD, 5 nM Tb-GST-antibody, 5 nM Fluormone Pan-PPAR Green, and serial dilutions of the experimental compound, beginning at 10 ׬M downwards, was added to wells of black 384-well low-volume plates (Greiner) to a total volume of 18 ׬L. All dilutions were made in TR-FRET assay buffer C. DMSO at 2% final concentration was used as a no-ligand control. Experiment was performed in triplicate, and incubated for 2 hours in the dark prior to assay read in Perkin Elmer ViewLux ultra HTS microplate reader. FRET signal was measured by excitation at 340 nm and emission at 520 nm for fluorescein and 490 nm for terbium. Fold change over DMSO was calculated using GraphPad Prism Software (La Jolla, Calif.) by calculating 520 nm/490 nm ratio. Graphs were plotted as fold change of FRET signal for compound treatment over DMSO-only control.

$$$$
CHEMBL3695780
Actelion Java MolfileCreator 2.0

  0  0  0  0  0  0              0 V3000
M  V30 BEGIN CTAB
M  V30 COUNTS 40 44 0 0 0
M  V30 BEGIN ATOM
M  V30 1 O 11.8592 -3.5669 0.0 0
M  V30 2 C 10.8811 -3.7748 0.0 0
M  V30 3 O 10.212 -3.0316 0.0 0
M  V30 4 C 10.5721 -4.7258 0.0 0
M  V30 5 C 9.5939 -4.9337 0.0 0
M  V30 6 C 11.2412 -5.469 0.0 0
M  V30 7 C 8.9248 -4.1906 0.0 0
M  V30 8 C 9.2849 -5.8848 0.0 0
M  V30 9 C 10.9322 -6.42 0.0 0
M  V30 10 C 9.2338 -3.2395 0.0 0
M  V30 11 C 7.9466 -4.3985 0.0 0
M  V30 12 C 9.954 -6.6279 0.0 0
M  V30 13 C 8.5647 -2.4964 0.0 0
M  V30 14 C 7.2775 -3.6554 0.0 0
M  V30 15 C 7.5865 -2.7043 0.0 0
M  V30 16 C 6.9174 -1.9612 0.0 0
M  V30 17 N 5.9392 -2.1691 0.0 0
M  V30 18 C 5.1961 -1.4999 0.0 0
M  V30 19 C 5.5325 -3.0826 0.0 0
M  V30 20 C 4.3301 -1.9999 0.0 0
M  V30 21 C 5.1961 -0.4999 0.0 0
M  V30 22 C 4.538 -2.9781 0.0 0
M  V30 23 C 6.0325 -3.9487 0.0 0
M  V30 24 C 3.4641 -1.5 0.0 0
M  V30 25 C 4.3301 0.0 0.0 0
M  V30 26 C 3.8689 -3.7212 0.0 0
M  V30 27 C 3.4641 -0.5 0.0 0
M  V30 28 C 2.598 0.0 0.0 0
M  V30 29 O 2.598 1.0 0.0 0
M  V30 30 N 1.732 -0.5 0.0 0
M  V30 31 C 0.866 0.0 0.0 0 CFG=1
M  V30 32 C 0.866 1.0 0.0 0
M  V30 33 C 0.0 -0.5 0.0 0
M  V30 34 C 1.732 1.5 0.0 0
M  V30 35 C 0.0 1.4999 0.0 0
M  V30 36 C 1.732 2.4999 0.0 0
M  V30 37 C 0.0 2.4999 0.0 0
M  V30 38 C 0.866 2.9999 0.0 0
M  V30 39 O 0.866 3.9999 0.0 0
M  V30 40 C 0.0 4.5 0.0 0
M  V30 END ATOM
M  V30 BEGIN BOND
M  V30 1 2 1 2
M  V30 2 1 2 3
M  V30 3 1 2 4
M  V30 4 2 4 5
M  V30 5 1 4 6
M  V30 6 1 5 7
M  V30 7 1 5 8
M  V30 8 2 6 9
M  V30 9 2 7 10
M  V30 10 1 7 11
M  V30 11 2 8 12
M  V30 12 1 10 13
M  V30 13 2 11 14
M  V30 14 2 13 15
M  V30 15 1 15 16
M  V30 16 1 16 17
M  V30 17 1 17 18
M  V30 18 1 17 19
M  V30 19 2 18 20
M  V30 20 1 18 21
M  V30 21 2 19 22
M  V30 22 1 19 23
M  V30 23 1 20 24
M  V30 24 2 21 25
M  V30 25 1 22 26
M  V30 26 2 24 27
M  V30 27 1 27 28
M  V30 28 2 28 29
M  V30 29 1 28 30
M  V30 30 1 30 31
M  V30 31 1 31 32
M  V30 32 1 31 33 CFG=3
M  V30 33 2 32 34
M  V30 34 1 32 35
M  V30 35 1 34 36
M  V30 36 2 35 37
M  V30 37 2 36 38
M  V30 38 1 38 39
M  V30 39 1 39 40
M  V30 40 1 9 12
M  V30 41 1 14 15
M  V30 42 1 20 22
M  V30 43 1 25 27
M  V30 44 1 37 38
M  V30 END BOND
M  V30 BEGIN COLLECTION
M  V30 MDLV30/STEABS ATOMS=(1 31)
M  V30 END COLLECTION
M  V30 END CTAB
M  END
>  <Molecule ChEMBL ID>
CHEMBL3695780

>  <Smiles>
COc1ccc([C@@H](C)NC(=O)c2ccc3c(c2)c(C)c(C)n3Cc2ccc(-c3ccccc3C(=O)O)cc2)cc1

>  <IC50_nM>
0.54

>  <Assay Description>
Binding affinity to GST-tagged PPAR-gamma-LBD (unknown origin) after 2 hrs by Lantha screen assay using fluormone Pan-PPAR green probe

$$$$
CHEMBL3695787
Actelion Java MolfileCreator 2.0

  0  0  0  0  0  0              0 V3000
M  V30 BEGIN CTAB
M  V30 COUNTS 38 42 0 0 0
M  V30 BEGIN ATOM
M  V30 1 O 3.8971 0.0 0.0 0
M  V30 2 C 5.1961 -0.75 0.0 0
M  V30 3 N 6.4951 0.0 0.0 0
M  V30 4 C 5.1961 -2.25 0.0 0
M  V30 5 C 7.7942 -0.7499 0.0 0 CFG=2
M  V30 6 C 6.4951 -3.0 0.0 0
M  V30 7 C 3.8971 -2.9999 0.0 0
M  V30 8 C 9.0932 0.0 0.0 0
M  V30 9 C 7.7942 -2.2499 0.0 0
M  V30 10 C 6.4951 -4.5 0.0 0
M  V30 11 C 3.8971 -4.5 0.0 0
M  V30 12 C 10.3923 -0.7499 0.0 0
M  V30 13 C 9.0932 1.5 0.0 0
M  V30 14 C 9.0932 -2.9999 0.0 0
M  V30 15 C 5.1961 -5.25 0.0 0
M  V30 16 C 7.6099 -5.5036 0.0 0
M  V30 17 C 11.6913 0.0 0.0 0
M  V30 18 C 10.3923 2.25 0.0 0
M  V30 19 N 5.508 -6.7172 0.0 0
M  V30 20 C 6.9998 -6.874 0.0 0
M  V30 21 C 9.0771 -5.1918 0.0 0
M  V30 22 C 11.6913 1.5 0.0 0
M  V30 23 C 4.5043 -7.8319 0.0 0
M  V30 24 C 7.7498 -8.173 0.0 0
M  V30 25 C 4.9678 -9.2585 0.0 0
M  V30 26 C 3.9641 -10.3732 0.0 0
M  V30 27 C 6.435 -9.5703 0.0 0
M  V30 28 C 4.4276 -11.7998 0.0 0
M  V30 29 C 6.8985 -10.9969 0.0 0
M  V30 30 C 5.8949 -12.1116 0.0 0
M  V30 31 C 6.3584 -13.5382 0.0 0
M  V30 32 C 5.3547 -14.6529 0.0 0
M  V30 33 C 7.8256 -13.8501 0.0 0
M  V30 34 C 3.8875 -14.3411 0.0 0
M  V30 35 C 5.8182 -16.0795 0.0 0
M  V30 36 C 8.2891 -15.2767 0.0 0
M  V30 37 N 2.4202 -14.0292 0.0 0
M  V30 38 C 7.2854 -16.3914 0.0 0
M  V30 END ATOM
M  V30 BEGIN BOND
M  V30 1 2 1 2
M  V30 2 1 2 3
M  V30 3 1 2 4
M  V30 4 1 5 3 CFG=3
M  V30 5 2 4 6
M  V30 6 1 4 7
M  V30 7 1 5 8
M  V30 8 1 5 9
M  V30 9 1 6 10
M  V30 10 2 7 11
M  V30 11 2 8 12
M  V30 12 1 8 13
M  V30 13 1 9 14
M  V30 14 2 10 15
M  V30 15 1 10 16
M  V30 16 1 12 17
M  V30 17 2 13 18
M  V30 18 1 15 19
M  V30 19 2 16 20
M  V30 20 1 16 21
M  V30 21 2 17 22
M  V30 22 1 19 23
M  V30 23 1 20 24
M  V30 24 1 23 25
M  V30 25 2 25 26
M  V30 26 1 25 27
M  V30 27 1 26 28
M  V30 28 2 27 29
M  V30 29 2 28 30
M  V30 30 1 30 31
M  V30 31 2 31 32
M  V30 32 1 31 33
M  V30 33 1 32 34
M  V30 34 1 32 35
M  V30 35 2 33 36
M  V30 36 3 34 37
M  V30 37 2 35 38
M  V30 38 1 11 15
M  V30 39 1 18 22
M  V30 40 1 19 20
M  V30 41 1 29 30
M  V30 42 1 36 38
M  V30 END BOND
M  V30 BEGIN COLLECTION
M  V30 MDLV30/STERAC1 ATOMS=(1 5)
M  V30 END COLLECTION
M  V30 END CTAB
M  END
>  <Molecule ChEMBL ID>
CHEMBL3695787

>  <Smiles>
CCC(NC(=O)c1ccc2c(c1)c(C)c(C)n2Cc1ccc(-c2ccccc2C#N)cc1)c1ccccc1

>  <IC50_nM>
0.54

>  <Assay Description>
Lanthascreen Competitive Binding Assay: The assay was performed according to manufacturer protocol. A mixture of nM GST-PPARG-LBD, 5 nM Tb-GST-antibody, 5 nM Fluormone Pan-PPAR Green, and serial dilutions of the experimental compound, beginning at 10 ׬M downwards, was added to wells of black 384-well low-volume plates (Greiner) to a total volume of 18 ׬L. All dilutions were made in TR-FRET assay buffer C. DMSO at 2% final concentration was used as a no-ligand control. Experiment was performed in triplicate, and incubated for 2 hours in the dark prior to assay read in Perkin Elmer ViewLux ultra HTS microplate reader. FRET signal was measured by excitation at 340 nm and emission at 520 nm for fluorescein and 490 nm for terbium. Fold change over DMSO was calculated using GraphPad Prism Software (La Jolla, Calif.) by calculating 520 nm/490 nm ratio. Graphs were plotted as fold change of FRET signal for compound treatment over DMSO-only control.

$$$$
CHEMBL5201278
Actelion Java MolfileCreator 2.0

  0  0  0  0  0  0              0 V3000
M  V30 BEGIN CTAB
M  V30 COUNTS 28 31 0 0 0
M  V30 BEGIN ATOM
M  V30 1 Cl 1.732 1.4999 0.0 0
M  V30 2 C 2.598 1.0 0.0 0
M  V30 3 C 2.598 0.0 0.0 0
M  V30 4 C 3.4641 1.4999 0.0 0
M  V30 5 C 1.732 -0.5 0.0 0
M  V30 6 C 3.4641 -0.5 0.0 0
M  V30 7 C 4.3301 1.0 0.0 0
M  V30 8 O 1.732 -1.5 0.0 0
M  V30 9 N 0.866 0.0 0.0 0
M  V30 10 C 4.3301 0.0 0.0 0
M  V30 11 C 0.0 -0.5 0.0 0
M  V30 12 N 5.1961 -0.5 0.0 0 CHG=1
M  V30 13 C 0.0 -1.4999 0.0 0
M  V30 14 C -0.866 0.0 0.0 0
M  V30 15 O 5.1961 -1.5 0.0 0
M  V30 16 O 6.0621 0.0 0.0 0 CHG=-1
M  V30 17 N -0.866 -1.9999 0.0 0
M  V30 18 C -1.732 -0.4999 0.0 0
M  V30 19 C -1.732 -1.4999 0.0 0
M  V30 20 C -1.0739 -2.9781 0.0 0
M  V30 21 N -2.4751 -2.1691 0.0 0
M  V30 22 C -2.0684 -3.0826 0.0 0
M  V30 23 C -2.5684 -3.9487 0.0 0
M  V30 24 C -3.5684 -3.9487 0.0 0
M  V30 25 C -2.0684 -4.8147 0.0 0
M  V30 26 C -4.0684 -4.8147 0.0 0
M  V30 27 C -2.5684 -5.6807 0.0 0
M  V30 28 C -3.5684 -5.6807 0.0 0
M  V30 END ATOM
M  V30 BEGIN BOND
M  V30 1 1 1 2
M  V30 2 2 2 3
M  V30 3 1 2 4
M  V30 4 1 3 5
M  V30 5 1 3 6
M  V30 6 2 4 7
M  V30 7 2 5 8
M  V30 8 1 5 9
M  V30 9 2 6 10
M  V30 10 1 9 11
M  V30 11 1 10 12
M  V30 12 2 11 13
M  V30 13 1 11 14
M  V30 14 2 12 15
M  V30 15 1 12 16
M  V30 16 1 13 17
M  V30 17 2 14 18
M  V30 18 1 17 19
M  V30 19 1 17 20
M  V30 20 2 19 21
M  V30 21 2 20 22
M  V30 22 1 22 23
M  V30 23 2 23 24
M  V30 24 1 23 25
M  V30 25 1 24 26
M  V30 26 2 25 27
M  V30 27 2 26 28
M  V30 28 1 7 10
M  V30 29 1 18 19
M  V30 30 1 21 22
M  V30 31 1 27 28
M  V30 END BOND
M  V30 END CTAB
M  END
>  <Molecule ChEMBL ID>
CHEMBL5201278

>  <Smiles>
O=C(Nc1ccc2nc(-c3ccccc3)cn2c1)c1cc([N+](=O)[O-])ccc1Cl

>  <IC50_nM>
0.58

>  <Assay Description>
Inverse agonist activity at PPARgamma in human RT112/84-FABP4 cells assessed as reduction in PPARgamma transactivation measured by Nanoluciferase reporter gene assay

$$$$
CHEMBL3678126
Actelion Java MolfileCreator 2.0

  0  0  0  0  0  0              0 V3000
M  V30 BEGIN CTAB
M  V30 COUNTS 39 43 0 0 0
M  V30 BEGIN ATOM
M  V30 1 Cl 4.3301 0.9999 0.0 0
M  V30 2 C 4.3301 0.0 0.0 0
M  V30 3 C 3.4641 -0.5 0.0 0
M  V30 4 C 5.1961 -0.5 0.0 0
M  V30 5 O 2.598 0.0 0.0 0
M  V30 6 C 3.4641 -1.5 0.0 0
M  V30 7 C 5.1961 -1.5 0.0 0
M  V30 8 C 1.732 -0.5 0.0 0 CFG=2
M  V30 9 C 4.3301 -2.0 0.0 0
M  V30 10 C 0.866 0.0 0.0 0
M  V30 11 C 1.732 -1.5 0.0 0
M  V30 12 C 4.3301 -3.0 0.0 0
M  V30 13 O 0.866 1.0 0.0 0
M  V30 14 O 0.0 -0.5 0.0 0
M  V30 15 N 5.1961 -3.5 0.0 0
M  V30 16 C 5.3006 -4.4945 0.0 0
M  V30 17 C 6.1096 -3.0932 0.0 0
M  V30 18 C 6.2788 -4.7024 0.0 0
M  V30 19 C 4.6315 -5.2376 0.0 0
M  V30 20 C 6.7788 -3.8364 0.0 0
M  V30 21 C 6.3176 -2.1151 0.0 0
M  V30 22 C 6.5878 -5.6534 0.0 0
M  V30 23 C 4.9405 -6.1887 0.0 0
M  V30 24 C 7.7733 -3.7318 0.0 0
M  V30 25 C 5.9187 -6.3966 0.0 0
M  V30 26 C 6.2277 -7.3476 0.0 0
M  V30 27 O 5.5586 -8.0908 0.0 0
M  V30 28 N 7.2058 -7.5556 0.0 0
M  V30 29 C 7.5148 -8.5066 0.0 0 CFG=2
M  V30 30 C 6.8457 -9.2498 0.0 0
M  V30 31 C 8.493 -8.7145 0.0 0
M  V30 32 C 5.8676 -9.0418 0.0 0
M  V30 33 C 7.1547 -10.2008 0.0 0
M  V30 34 C 5.1984 -9.785 0.0 0
M  V30 35 C 6.4856 -10.944 0.0 0
M  V30 36 C 5.5075 -10.736 0.0 0
M  V30 37 C 4.2203 -9.5771 0.0 0
M  V30 38 C 3.4771 -8.9079 0.0 0
M  V30 39 C 3.2692 -9.8861 0.0 0
M  V30 END ATOM
M  V30 BEGIN BOND
M  V30 1 1 1 2
M  V30 2 2 2 3
M  V30 3 1 2 4
M  V30 4 1 3 5
M  V30 5 1 3 6
M  V30 6 2 4 7
M  V30 7 1 5 8
M  V30 8 2 6 9
M  V30 9 1 8 10
M  V30 10 1 8 11 CFG=1
M  V30 11 1 9 12
M  V30 12 2 10 13
M  V30 13 1 10 14
M  V30 14 1 12 15
M  V30 15 1 15 16
M  V30 16 1 15 17
M  V30 17 2 16 18
M  V30 18 1 16 19
M  V30 19 2 17 20
M  V30 20 1 17 21
M  V30 21 1 18 22
M  V30 22 2 19 23
M  V30 23 1 20 24
M  V30 24 2 22 25
M  V30 25 1 25 26
M  V30 26 2 26 27
M  V30 27 1 26 28
M  V30 28 1 28 29
M  V30 29 1 29 30
M  V30 30 1 29 31 CFG=1
M  V30 31 2 30 32
M  V30 32 1 30 33
M  V30 33 1 32 34
M  V30 34 2 33 35
M  V30 35 2 34 36
M  V30 36 1 34 37
M  V30 37 1 37 38
M  V30 38 1 37 39
M  V30 39 1 7 9
M  V30 40 1 18 20
M  V30 41 1 23 25
M  V30 42 1 35 36
M  V30 43 1 38 39
M  V30 END BOND
M  V30 BEGIN COLLECTION
M  V30 MDLV30/STEABS ATOMS=(2 8 29)
M  V30 END COLLECTION
M  V30 END CTAB
M  END
>  <Molecule ChEMBL ID>
CHEMBL3678126

>  <Smiles>
Cc1c(C)n(Cc2ccc(Cl)c(O[C@@H](C)C(=O)O)c2)c2ccc(C(=O)N[C@@H](C)c3cccc(C4CC4)c3)cc12

>  <IC50_nM>
0.6

>  <Assay Description>
Lanthascreen Competitive Binding Assay: The assay was performed according to manufacturer protocol. A mixture of 5 nM GST-PPARG-LBD, 5 nM Tb-GST-antibody, 5 nM Fluormone Pan- PPAR Green, and serial dilutions of the experimental compound, beginning at 10 ׬� downwards, was added to wells of black 384-well low- volume plates (Greiner) to a total volume of 18 xL. All dilutions were made in TR-FRET assay buffer C. DMSO at 2% final concentration was used as a no-ligand control. Experiment was performed in triplicate, and incubated for 2 hours in the dark prior to assay read in Perkin Elmer ViewLux ultra HTS microplate reader. FRET signal was measured by excitation at 340 nm and emission at 520 nm for fluorescein and 490 nm for terbium.

$$$$
CHEMBL3678132
Actelion Java MolfileCreator 2.0

  0  0  0  0  0  0              0 V3000
M  V30 BEGIN CTAB
M  V30 COUNTS 39 43 0 0 0
M  V30 BEGIN ATOM
M  V30 1 Cl 6.0621 -1.9999 0.0 0
M  V30 2 C 5.1961 -1.4999 0.0 0
M  V30 3 C 5.1961 -0.5 0.0 0
M  V30 4 C 4.3301 -1.9999 0.0 0
M  V30 5 C 4.3301 0.0 0.0 0
M  V30 6 C 6.0621 0.0 0.0 0
M  V30 7 C 3.4641 -1.5 0.0 0
M  V30 8 C 3.4641 -0.5 0.0 0
M  V30 9 N 6.0621 1.0 0.0 0
M  V30 10 O 2.598 0.0 0.0 0
M  V30 11 C 6.8711 1.5877 0.0 0
M  V30 12 C 5.2531 1.5877 0.0 0
M  V30 13 C 1.732 -0.5 0.0 0 CFG=2
M  V30 14 C 6.5621 2.5388 0.0 0
M  V30 15 C 7.8493 1.3798 0.0 0
M  V30 16 C 5.5621 2.5388 0.0 0
M  V30 17 C 4.3021 1.2787 0.0 0
M  V30 18 C 0.866 0.0 0.0 0
M  V30 19 C 1.732 -1.5 0.0 0
M  V30 20 C 7.2313 3.2819 0.0 0
M  V30 21 C 8.5184 2.123 0.0 0
M  V30 22 C 4.9743 3.3478 0.0 0
M  V30 23 O 0.866 1.0 0.0 0
M  V30 24 O 0.0 -0.5 0.0 0
M  V30 25 C 8.2094 3.074 0.0 0
M  V30 26 C 8.8785 3.8172 0.0 0
M  V30 27 O 9.8567 3.6093 0.0 0
M  V30 28 N 8.5695 4.7682 0.0 0
M  V30 29 C 9.2387 5.5114 0.0 0 CFG=2
M  V30 30 C 10.2168 5.3035 0.0 0
M  V30 31 C 8.9296 6.4624 0.0 0
M  V30 32 C 10.5258 4.3524 0.0 0
M  V30 33 C 10.8859 6.0466 0.0 0
M  V30 34 C 11.504 4.1445 0.0 0
M  V30 35 C 11.8641 5.8387 0.0 0
M  V30 36 C 12.1731 4.8876 0.0 0
M  V30 37 C 11.813 3.1934 0.0 0
M  V30 38 C 11.6051 2.2153 0.0 0
M  V30 39 C 12.5561 2.5243 0.0 0
M  V30 END ATOM
M  V30 BEGIN BOND
M  V30 1 1 1 2
M  V30 2 2 2 3
M  V30 3 1 2 4
M  V30 4 1 3 5
M  V30 5 1 3 6
M  V30 6 2 4 7
M  V30 7 2 5 8
M  V30 8 1 6 9
M  V30 9 1 8 10
M  V30 10 1 9 11
M  V30 11 1 9 12
M  V30 12 1 10 13
M  V30 13 2 11 14
M  V30 14 1 11 15
M  V30 15 2 12 16
M  V30 16 1 12 17
M  V30 17 1 13 18
M  V30 18 1 13 19 CFG=1
M  V30 19 1 14 20
M  V30 20 2 15 21
M  V30 21 1 16 22
M  V30 22 2 18 23
M  V30 23 1 18 24
M  V30 24 2 20 25
M  V30 25 1 25 26
M  V30 26 2 26 27
M  V30 27 1 26 28
M  V30 28 1 28 29
M  V30 29 1 29 30
M  V30 30 1 29 31 CFG=1
M  V30 31 2 30 32
M  V30 32 1 30 33
M  V30 33 1 32 34
M  V30 34 2 33 35
M  V30 35 2 34 36
M  V30 36 1 34 37
M  V30 37 1 37 38
M  V30 38 1 37 39
M  V30 39 1 7 8
M  V30 40 1 14 16
M  V30 41 1 21 25
M  V30 42 1 35 36
M  V30 43 1 38 39
M  V30 END BOND
M  V30 BEGIN COLLECTION
M  V30 MDLV30/STEABS ATOMS=(2 13 29)
M  V30 END COLLECTION
M  V30 END CTAB
M  END
>  <Molecule ChEMBL ID>
CHEMBL3678132

>  <Smiles>
Cc1c(C)n(Cc2cc(O[C@@H](C)C(=O)O)ccc2Cl)c2ccc(C(=O)N[C@@H](C)c3cccc(C4CC4)c3)cc12

>  <IC50_nM>
0.6

>  <Assay Description>
Lanthascreen Competitive Binding Assay: The assay was performed according to manufacturer protocol. A mixture of 5 nM GST-PPARG-LBD, 5 nM Tb-GST-antibody, 5 nM Fluormone Pan- PPAR Green, and serial dilutions of the experimental compound, beginning at 10 ׬� downwards, was added to wells of black 384-well low- volume plates (Greiner) to a total volume of 18 xL. All dilutions were made in TR-FRET assay buffer C. DMSO at 2% final concentration was used as a no-ligand control. Experiment was performed in triplicate, and incubated for 2 hours in the dark prior to assay read in Perkin Elmer ViewLux ultra HTS microplate reader. FRET signal was measured by excitation at 340 nm and emission at 520 nm for fluorescein and 490 nm for terbium.

$$$$
CHEMBL3678125
Actelion Java MolfileCreator 2.0

  0  0  0  0  0  0              0 V3000
M  V30 BEGIN CTAB
M  V30 COUNTS 39 42 0 0 0
M  V30 BEGIN ATOM
M  V30 1 Cl 4.3301 0.9999 0.0 0
M  V30 2 C 4.3301 0.0 0.0 0
M  V30 3 C 3.4641 -0.5 0.0 0
M  V30 4 C 5.1961 -0.5 0.0 0
M  V30 5 O 2.598 0.0 0.0 0
M  V30 6 C 3.4641 -1.5 0.0 0
M  V30 7 C 5.1961 -1.5 0.0 0
M  V30 8 C 1.732 -0.5 0.0 0 CFG=2
M  V30 9 C 4.3301 -2.0 0.0 0
M  V30 10 C 0.866 0.0 0.0 0
M  V30 11 C 1.732 -1.5 0.0 0
M  V30 12 C 4.3301 -3.0 0.0 0
M  V30 13 O 0.866 1.0 0.0 0
M  V30 14 O 0.0 -0.5 0.0 0
M  V30 15 N 5.1961 -3.5 0.0 0
M  V30 16 C 5.3006 -4.4945 0.0 0
M  V30 17 C 6.1096 -3.0932 0.0 0
M  V30 18 C 6.2788 -4.7024 0.0 0
M  V30 19 C 4.6315 -5.2376 0.0 0
M  V30 20 C 6.7788 -3.8364 0.0 0
M  V30 21 C 6.3176 -2.1151 0.0 0
M  V30 22 C 6.5878 -5.6534 0.0 0
M  V30 23 C 4.9405 -6.1887 0.0 0
M  V30 24 C 7.7733 -3.7318 0.0 0
M  V30 25 C 5.9187 -6.3966 0.0 0
M  V30 26 C 6.2277 -7.3476 0.0 0
M  V30 27 O 5.5586 -8.0908 0.0 0
M  V30 28 N 7.2058 -7.5556 0.0 0
M  V30 29 C 7.5148 -8.5066 0.0 0 CFG=2
M  V30 30 C 6.8457 -9.2498 0.0 0
M  V30 31 C 8.493 -8.7145 0.0 0
M  V30 32 C 5.8676 -9.0418 0.0 0
M  V30 33 C 7.1547 -10.2008 0.0 0
M  V30 34 C 5.1984 -9.785 0.0 0
M  V30 35 C 6.4856 -10.944 0.0 0
M  V30 36 C 5.5075 -10.736 0.0 0
M  V30 37 C 4.2203 -9.5771 0.0 0
M  V30 38 C 3.9113 -8.626 0.0 0
M  V30 39 C 3.5512 -10.3202 0.0 0
M  V30 END ATOM
M  V30 BEGIN BOND
M  V30 1 1 1 2
M  V30 2 2 2 3
M  V30 3 1 2 4
M  V30 4 1 3 5
M  V30 5 1 3 6
M  V30 6 2 4 7
M  V30 7 1 5 8
M  V30 8 2 6 9
M  V30 9 1 8 10
M  V30 10 1 8 11 CFG=1
M  V30 11 1 9 12
M  V30 12 2 10 13
M  V30 13 1 10 14
M  V30 14 1 12 15
M  V30 15 1 15 16
M  V30 16 1 15 17
M  V30 17 2 16 18
M  V30 18 1 16 19
M  V30 19 2 17 20
M  V30 20 1 17 21
M  V30 21 1 18 22
M  V30 22 2 19 23
M  V30 23 1 20 24
M  V30 24 2 22 25
M  V30 25 1 25 26
M  V30 26 2 26 27
M  V30 27 1 26 28
M  V30 28 1 28 29
M  V30 29 1 29 30
M  V30 30 1 29 31 CFG=1
M  V30 31 2 30 32
M  V30 32 1 30 33
M  V30 33 1 32 34
M  V30 34 2 33 35
M  V30 35 2 34 36
M  V30 36 1 34 37
M  V30 37 1 37 38
M  V30 38 1 37 39
M  V30 39 1 7 9
M  V30 40 1 18 20
M  V30 41 1 23 25
M  V30 42 1 35 36
M  V30 END BOND
M  V30 BEGIN COLLECTION
M  V30 MDLV30/STEABS ATOMS=(2 8 29)
M  V30 END COLLECTION
M  V30 END CTAB
M  END
>  <Molecule ChEMBL ID>
CHEMBL3678125

>  <Smiles>
Cc1c(C)n(Cc2ccc(Cl)c(O[C@@H](C)C(=O)O)c2)c2ccc(C(=O)N[C@@H](C)c3cccc(C(C)C)c3)cc12

>  <IC50_nM>
0.6

>  <Assay Description>
Lanthascreen Competitive Binding Assay: The assay was performed according to manufacturer protocol. A mixture of 5 nM GST-PPARG-LBD, 5 nM Tb-GST-antibody, 5 nM Fluormone Pan- PPAR Green, and serial dilutions of the experimental compound, beginning at 10 ׬� downwards, was added to wells of black 384-well low- volume plates (Greiner) to a total volume of 18 xL. All dilutions were made in TR-FRET assay buffer C. DMSO at 2% final concentration was used as a no-ligand control. Experiment was performed in triplicate, and incubated for 2 hours in the dark prior to assay read in Perkin Elmer ViewLux ultra HTS microplate reader. FRET signal was measured by excitation at 340 nm and emission at 520 nm for fluorescein and 490 nm for terbium.

$$$$
CHEMBL3695765
Actelion Java MolfileCreator 2.0

  0  0  0  0  0  0              0 V3000
M  V30 BEGIN CTAB
M  V30 COUNTS 39 43 0 0 0
M  V30 BEGIN ATOM
M  V30 1 Br 6.0621 -1.9999 0.0 0
M  V30 2 C 5.1961 -1.4999 0.0 0
M  V30 3 C 5.1961 -0.5 0.0 0
M  V30 4 C 4.3301 -1.9999 0.0 0
M  V30 5 C 4.3301 0.0 0.0 0
M  V30 6 C 3.4641 -1.5 0.0 0
M  V30 7 C 3.4641 -0.5 0.0 0
M  V30 8 C 2.598 0.0 0.0 0 CFG=2
M  V30 9 N 1.732 -0.5 0.0 0
M  V30 10 C 2.598 1.0 0.0 0
M  V30 11 C 0.866 0.0 0.0 0
M  V30 12 O 0.866 1.0 0.0 0
M  V30 13 C 0.0 -0.5 0.0 0
M  V30 14 C 0.0 -1.4999 0.0 0
M  V30 15 C -0.866 0.0 0.0 0
M  V30 16 C -0.866 -1.9999 0.0 0
M  V30 17 C -1.732 -0.4999 0.0 0
M  V30 18 C -1.732 -1.4999 0.0 0
M  V30 19 C -1.0739 -2.9781 0.0 0
M  V30 20 N -2.4751 -2.1691 0.0 0
M  V30 21 C -2.0684 -3.0826 0.0 0
M  V30 22 C -0.4048 -3.7212 0.0 0
M  V30 23 C -3.4533 -1.9612 0.0 0
M  V30 24 C -2.5684 -3.9487 0.0 0
M  V30 25 C -4.1224 -2.7043 0.0 0
M  V30 26 C -5.1006 -2.4964 0.0 0
M  V30 27 C -3.8134 -3.6554 0.0 0
M  V30 28 C -5.7697 -3.2395 0.0 0
M  V30 29 C -4.4825 -4.3985 0.0 0
M  V30 30 C -5.4607 -4.1906 0.0 0
M  V30 31 C -6.1298 -4.9337 0.0 0
M  V30 32 C -7.108 -4.7258 0.0 0
M  V30 33 C -5.8208 -5.8848 0.0 0
M  V30 34 C -7.417 -3.7748 0.0 0
M  V30 35 C -7.7771 -5.469 0.0 0
M  V30 36 C -6.4899 -6.6279 0.0 0
M  V30 37 O -6.7478 -3.0316 0.0 0
M  V30 38 O -8.3951 -3.5669 0.0 0
M  V30 39 C -7.4681 -6.42 0.0 0
M  V30 END ATOM
M  V30 BEGIN BOND
M  V30 1 1 1 2
M  V30 2 2 2 3
M  V30 3 1 2 4
M  V30 4 1 3 5
M  V30 5 2 4 6
M  V30 6 2 5 7
M  V30 7 1 7 8
M  V30 8 1 8 9
M  V30 9 1 8 10 CFG=3
M  V30 10 1 9 11
M  V30 11 2 11 12
M  V30 12 1 11 13
M  V30 13 2 13 14
M  V30 14 1 13 15
M  V30 15 1 14 16
M  V30 16 2 15 17
M  V30 17 2 16 18
M  V30 18 1 16 19
M  V30 19 1 18 20
M  V30 20 2 19 21
M  V30 21 1 19 22
M  V30 22 1 20 23
M  V30 23 1 21 24
M  V30 24 1 23 25
M  V30 25 2 25 26
M  V30 26 1 25 27
M  V30 27 1 26 28
M  V30 28 2 27 29
M  V30 29 2 28 30
M  V30 30 1 30 31
M  V30 31 2 31 32
M  V30 32 1 31 33
M  V30 33 1 32 34
M  V30 34 1 32 35
M  V30 35 2 33 36
M  V30 36 2 34 37
M  V30 37 1 34 38
M  V30 38 2 35 39
M  V30 39 1 6 7
M  V30 40 1 17 18
M  V30 41 1 20 21
M  V30 42 1 29 30
M  V30 43 1 36 39
M  V30 END BOND
M  V30 BEGIN COLLECTION
M  V30 MDLV30/STEABS ATOMS=(1 8)
M  V30 END COLLECTION
M  V30 END CTAB
M  END
>  <Molecule ChEMBL ID>
CHEMBL3695765

>  <Smiles>
Cc1c(C)n(Cc2ccc(-c3ccccc3C(=O)O)cc2)c2ccc(C(=O)N[C@H](C)c3ccc(Br)cc3)cc12

>  <IC50_nM>
0.7

>  <Assay Description>
Lanthascreen Competitive Binding Assay: The assay was performed according to manufacturer protocol. A mixture of nM GST-PPARG-LBD, 5 nM Tb-GST-antibody, 5 nM Fluormone Pan-PPAR Green, and serial dilutions of the experimental compound, beginning at 10 ׬M downwards, was added to wells of black 384-well low-volume plates (Greiner) to a total volume of 18 ׬L. All dilutions were made in TR-FRET assay buffer C. DMSO at 2% final concentration was used as a no-ligand control. Experiment was performed in triplicate, and incubated for 2 hours in the dark prior to assay read in Perkin Elmer ViewLux ultra HTS microplate reader. FRET signal was measured by excitation at 340 nm and emission at 520 nm for fluorescein and 490 nm for terbium. Fold change over DMSO was calculated using GraphPad Prism Software (La Jolla, Calif.) by calculating 520 nm/490 nm ratio. Graphs were plotted as fold change of FRET signal for compound treatment over DMSO-only control.

$$$$
CHEMBL3678127
Actelion Java MolfileCreator 2.0

  0  0  0  0  0  0              0 V3000
M  V30 BEGIN CTAB
M  V30 COUNTS 37 40 0 0 0
M  V30 BEGIN ATOM
M  V30 1 Br 6.0621 -1.9999 0.0 0
M  V30 2 C 5.1961 -1.4999 0.0 0
M  V30 3 C 5.1961 -0.5 0.0 0
M  V30 4 C 4.3301 -1.9999 0.0 0
M  V30 5 C 4.3301 0.0 0.0 0
M  V30 6 C 3.4641 -1.5 0.0 0
M  V30 7 C 3.4641 -0.5 0.0 0
M  V30 8 C 2.598 0.0 0.0 0 CFG=1
M  V30 9 N 1.732 -0.5 0.0 0
M  V30 10 C 2.598 1.0 0.0 0
M  V30 11 C 0.866 0.0 0.0 0
M  V30 12 O 0.866 1.0 0.0 0
M  V30 13 C 0.0 -0.5 0.0 0
M  V30 14 C 0.0 -1.4999 0.0 0
M  V30 15 C -0.866 0.0 0.0 0
M  V30 16 C -0.866 -1.9999 0.0 0
M  V30 17 C -1.732 -0.4999 0.0 0
M  V30 18 C -1.732 -1.4999 0.0 0
M  V30 19 C -1.0739 -2.9781 0.0 0
M  V30 20 N -2.4751 -2.1691 0.0 0
M  V30 21 C -2.0684 -3.0826 0.0 0
M  V30 22 C -0.4048 -3.7212 0.0 0
M  V30 23 C -3.4533 -1.9612 0.0 0
M  V30 24 C -2.5684 -3.9487 0.0 0
M  V30 25 C -4.1224 -2.7043 0.0 0
M  V30 26 C -5.1006 -2.4964 0.0 0
M  V30 27 C -3.8134 -3.6554 0.0 0
M  V30 28 C -5.7697 -3.2395 0.0 0
M  V30 29 C -4.4825 -4.3985 0.0 0
M  V30 30 O -6.7478 -3.0316 0.0 0
M  V30 31 C -5.4607 -4.1906 0.0 0
M  V30 32 C -7.417 -3.7748 0.0 0 CFG=2
M  V30 33 Cl -6.1298 -4.9337 0.0 0
M  V30 34 C -8.3951 -3.5669 0.0 0
M  V30 35 C -7.108 -4.7258 0.0 0
M  V30 36 O -8.7041 -2.6158 0.0 0
M  V30 37 O -9.0643 -4.31 0.0 0
M  V30 END ATOM
M  V30 BEGIN BOND
M  V30 1 1 1 2
M  V30 2 2 2 3
M  V30 3 1 2 4
M  V30 4 1 3 5
M  V30 5 2 4 6
M  V30 6 2 5 7
M  V30 7 1 7 8
M  V30 8 1 8 9
M  V30 9 1 8 10 CFG=1
M  V30 10 1 9 11
M  V30 11 2 11 12
M  V30 12 1 11 13
M  V30 13 2 13 14
M  V30 14 1 13 15
M  V30 15 1 14 16
M  V30 16 2 15 17
M  V30 17 2 16 18
M  V30 18 1 16 19
M  V30 19 1 18 20
M  V30 20 2 19 21
M  V30 21 1 19 22
M  V30 22 1 20 23
M  V30 23 1 21 24
M  V30 24 1 23 25
M  V30 25 2 25 26
M  V30 26 1 25 27
M  V30 27 1 26 28
M  V30 28 2 27 29
M  V30 29 1 28 30
M  V30 30 2 28 31
M  V30 31 1 30 32
M  V30 32 1 31 33
M  V30 33 1 32 34
M  V30 34 1 32 35 CFG=1
M  V30 35 2 34 36
M  V30 36 1 34 37
M  V30 37 1 6 7
M  V30 38 1 17 18
M  V30 39 1 20 21
M  V30 40 1 29 31
M  V30 END BOND
M  V30 BEGIN COLLECTION
M  V30 MDLV30/STEABS ATOMS=(2 8 32)
M  V30 END COLLECTION
M  V30 END CTAB
M  END
>  <Molecule ChEMBL ID>
CHEMBL3678127

>  <Smiles>
Cc1c(C)n(Cc2ccc(Cl)c(O[C@@H](C)C(=O)O)c2)c2ccc(C(=O)N[C@@H](C)c3ccc(Br)cc3)cc12

>  <IC50_nM>
0.7

>  <Assay Description>
Lanthascreen Competitive Binding Assay: The assay was performed according to manufacturer protocol. A mixture of 5 nM GST-PPARG-LBD, 5 nM Tb-GST-antibody, 5 nM Fluormone Pan- PPAR Green, and serial dilutions of the experimental compound, beginning at 10 ׬� downwards, was added to wells of black 384-well low- volume plates (Greiner) to a total volume of 18 xL. All dilutions were made in TR-FRET assay buffer C. DMSO at 2% final concentration was used as a no-ligand control. Experiment was performed in triplicate, and incubated for 2 hours in the dark prior to assay read in Perkin Elmer ViewLux ultra HTS microplate reader. FRET signal was measured by excitation at 340 nm and emission at 520 nm for fluorescein and 490 nm for terbium.

$$$$
CHEMBL3695765
Actelion Java MolfileCreator 2.0

  0  0  0  0  0  0              0 V3000
M  V30 BEGIN CTAB
M  V30 COUNTS 39 43 0 0 0
M  V30 BEGIN ATOM
M  V30 1 Br 6.0621 -1.9999 0.0 0
M  V30 2 C 5.1961 -1.4999 0.0 0
M  V30 3 C 5.1961 -0.5 0.0 0
M  V30 4 C 4.3301 -1.9999 0.0 0
M  V30 5 C 4.3301 0.0 0.0 0
M  V30 6 C 3.4641 -1.5 0.0 0
M  V30 7 C 3.4641 -0.5 0.0 0
M  V30 8 C 2.598 0.0 0.0 0 CFG=2
M  V30 9 N 1.732 -0.5 0.0 0
M  V30 10 C 2.598 1.0 0.0 0
M  V30 11 C 0.866 0.0 0.0 0
M  V30 12 O 0.866 1.0 0.0 0
M  V30 13 C 0.0 -0.5 0.0 0
M  V30 14 C 0.0 -1.4999 0.0 0
M  V30 15 C -0.866 0.0 0.0 0
M  V30 16 C -0.866 -1.9999 0.0 0
M  V30 17 C -1.732 -0.4999 0.0 0
M  V30 18 C -1.732 -1.4999 0.0 0
M  V30 19 C -1.0739 -2.9781 0.0 0
M  V30 20 N -2.4751 -2.1691 0.0 0
M  V30 21 C -2.0684 -3.0826 0.0 0
M  V30 22 C -0.4048 -3.7212 0.0 0
M  V30 23 C -3.4533 -1.9612 0.0 0
M  V30 24 C -2.5684 -3.9487 0.0 0
M  V30 25 C -4.1224 -2.7043 0.0 0
M  V30 26 C -5.1006 -2.4964 0.0 0
M  V30 27 C -3.8134 -3.6554 0.0 0
M  V30 28 C -5.7697 -3.2395 0.0 0
M  V30 29 C -4.4825 -4.3985 0.0 0
M  V30 30 C -5.4607 -4.1906 0.0 0
M  V30 31 C -6.1298 -4.9337 0.0 0
M  V30 32 C -7.108 -4.7258 0.0 0
M  V30 33 C -5.8208 -5.8848 0.0 0
M  V30 34 C -7.417 -3.7748 0.0 0
M  V30 35 C -7.7771 -5.469 0.0 0
M  V30 36 C -6.4899 -6.6279 0.0 0
M  V30 37 O -6.7478 -3.0316 0.0 0
M  V30 38 O -8.3951 -3.5669 0.0 0
M  V30 39 C -7.4681 -6.42 0.0 0
M  V30 END ATOM
M  V30 BEGIN BOND
M  V30 1 1 1 2
M  V30 2 2 2 3
M  V30 3 1 2 4
M  V30 4 1 3 5
M  V30 5 2 4 6
M  V30 6 2 5 7
M  V30 7 1 7 8
M  V30 8 1 8 9
M  V30 9 1 8 10 CFG=3
M  V30 10 1 9 11
M  V30 11 2 11 12
M  V30 12 1 11 13
M  V30 13 2 13 14
M  V30 14 1 13 15
M  V30 15 1 14 16
M  V30 16 2 15 17
M  V30 17 2 16 18
M  V30 18 1 16 19
M  V30 19 1 18 20
M  V30 20 2 19 21
M  V30 21 1 19 22
M  V30 22 1 20 23
M  V30 23 1 21 24
M  V30 24 1 23 25
M  V30 25 2 25 26
M  V30 26 1 25 27
M  V30 27 1 26 28
M  V30 28 2 27 29
M  V30 29 2 28 30
M  V30 30 1 30 31
M  V30 31 2 31 32
M  V30 32 1 31 33
M  V30 33 1 32 34
M  V30 34 1 32 35
M  V30 35 2 33 36
M  V30 36 2 34 37
M  V30 37 1 34 38
M  V30 38 2 35 39
M  V30 39 1 6 7
M  V30 40 1 17 18
M  V30 41 1 20 21
M  V30 42 1 29 30
M  V30 43 1 36 39
M  V30 END BOND
M  V30 BEGIN COLLECTION
M  V30 MDLV30/STEABS ATOMS=(1 8)
M  V30 END COLLECTION
M  V30 END CTAB
M  END
>  <Molecule ChEMBL ID>
CHEMBL3695765

>  <Smiles>
Cc1c(C)n(Cc2ccc(-c3ccccc3C(=O)O)cc2)c2ccc(C(=O)N[C@H](C)c3ccc(Br)cc3)cc12

>  <IC50_nM>
0.73

>  <Assay Description>
Binding affinity to GST-tagged PPAR-gamma-LBD (unknown origin) after 2 hrs by Lantha screen assay using fluormone Pan-PPAR green probe

$$$$
CHEMBL3695846
Actelion Java MolfileCreator 2.0

  0  0  0  0  0  0              0 V3000
M  V30 BEGIN CTAB
M  V30 COUNTS 39 43 0 0 0
M  V30 BEGIN ATOM
M  V30 1 F 6.0621 -1.9999 0.0 0
M  V30 2 C 5.1961 -1.4999 0.0 0
M  V30 3 C 5.1961 -0.5 0.0 0
M  V30 4 C 4.3301 -1.9999 0.0 0
M  V30 5 C 4.3301 0.0 0.0 0
M  V30 6 C 3.4641 -1.5 0.0 0
M  V30 7 C 3.4641 -0.5 0.0 0
M  V30 8 C 2.598 0.0 0.0 0 CFG=2
M  V30 9 N 1.732 -0.5 0.0 0
M  V30 10 C 2.598 1.0 0.0 0
M  V30 11 C 0.866 0.0 0.0 0
M  V30 12 O 0.866 1.0 0.0 0
M  V30 13 C 0.0 -0.5 0.0 0
M  V30 14 C 0.0 -1.4999 0.0 0
M  V30 15 C -0.866 0.0 0.0 0
M  V30 16 C -0.866 -1.9999 0.0 0
M  V30 17 C -1.732 -0.4999 0.0 0
M  V30 18 C -1.732 -1.4999 0.0 0
M  V30 19 C -1.0739 -2.9781 0.0 0
M  V30 20 N -2.4751 -2.1691 0.0 0
M  V30 21 C -2.0684 -3.0826 0.0 0
M  V30 22 C -0.4048 -3.7212 0.0 0
M  V30 23 C -3.4533 -1.9612 0.0 0
M  V30 24 C -2.5684 -3.9487 0.0 0
M  V30 25 C -4.1224 -2.7043 0.0 0
M  V30 26 C -5.1006 -2.4964 0.0 0
M  V30 27 C -3.8134 -3.6554 0.0 0
M  V30 28 C -5.7697 -3.2395 0.0 0
M  V30 29 C -4.4825 -4.3985 0.0 0
M  V30 30 C -5.4607 -4.1906 0.0 0
M  V30 31 C -6.1298 -4.9337 0.0 0
M  V30 32 C -7.108 -4.7258 0.0 0
M  V30 33 C -5.8208 -5.8848 0.0 0
M  V30 34 C -7.417 -3.7748 0.0 0
M  V30 35 C -7.7771 -5.469 0.0 0
M  V30 36 C -6.4899 -6.6279 0.0 0
M  V30 37 O -6.7478 -3.0316 0.0 0
M  V30 38 O -8.3951 -3.5669 0.0 0
M  V30 39 C -7.4681 -6.42 0.0 0
M  V30 END ATOM
M  V30 BEGIN BOND
M  V30 1 1 1 2
M  V30 2 2 2 3
M  V30 3 1 2 4
M  V30 4 1 3 5
M  V30 5 2 4 6
M  V30 6 2 5 7
M  V30 7 1 7 8
M  V30 8 1 8 9
M  V30 9 1 8 10 CFG=3
M  V30 10 1 9 11
M  V30 11 2 11 12
M  V30 12 1 11 13
M  V30 13 2 13 14
M  V30 14 1 13 15
M  V30 15 1 14 16
M  V30 16 2 15 17
M  V30 17 2 16 18
M  V30 18 1 16 19
M  V30 19 1 18 20
M  V30 20 2 19 21
M  V30 21 1 19 22
M  V30 22 1 20 23
M  V30 23 1 21 24
M  V30 24 1 23 25
M  V30 25 2 25 26
M  V30 26 1 25 27
M  V30 27 1 26 28
M  V30 28 2 27 29
M  V30 29 2 28 30
M  V30 30 1 30 31
M  V30 31 2 31 32
M  V30 32 1 31 33
M  V30 33 1 32 34
M  V30 34 1 32 35
M  V30 35 2 33 36
M  V30 36 2 34 37
M  V30 37 1 34 38
M  V30 38 2 35 39
M  V30 39 1 6 7
M  V30 40 1 17 18
M  V30 41 1 20 21
M  V30 42 1 29 30
M  V30 43 1 36 39
M  V30 END BOND
M  V30 BEGIN COLLECTION
M  V30 MDLV30/STEABS ATOMS=(1 8)
M  V30 END COLLECTION
M  V30 END CTAB
M  END
>  <Molecule ChEMBL ID>
CHEMBL3695846

>  <Smiles>
Cc1c(C)n(Cc2ccc(-c3ccccc3C(=O)O)cc2)c2ccc(C(=O)N[C@H](C)c3ccc(F)cc3)cc12

>  <IC50_nM>
0.79

>  <Assay Description>
Binding affinity to GST-tagged PPAR-gamma-LBD (unknown origin) after 2 hrs by Lantha screen assay using fluormone Pan-PPAR green probe

$$$$
CHEMBL3695846
Actelion Java MolfileCreator 2.0

  0  0  0  0  0  0              0 V3000
M  V30 BEGIN CTAB
M  V30 COUNTS 39 43 0 0 0
M  V30 BEGIN ATOM
M  V30 1 F 6.0621 -1.9999 0.0 0
M  V30 2 C 5.1961 -1.4999 0.0 0
M  V30 3 C 5.1961 -0.5 0.0 0
M  V30 4 C 4.3301 -1.9999 0.0 0
M  V30 5 C 4.3301 0.0 0.0 0
M  V30 6 C 3.4641 -1.5 0.0 0
M  V30 7 C 3.4641 -0.5 0.0 0
M  V30 8 C 2.598 0.0 0.0 0 CFG=2
M  V30 9 N 1.732 -0.5 0.0 0
M  V30 10 C 2.598 1.0 0.0 0
M  V30 11 C 0.866 0.0 0.0 0
M  V30 12 O 0.866 1.0 0.0 0
M  V30 13 C 0.0 -0.5 0.0 0
M  V30 14 C 0.0 -1.4999 0.0 0
M  V30 15 C -0.866 0.0 0.0 0
M  V30 16 C -0.866 -1.9999 0.0 0
M  V30 17 C -1.732 -0.4999 0.0 0
M  V30 18 C -1.732 -1.4999 0.0 0
M  V30 19 C -1.0739 -2.9781 0.0 0
M  V30 20 N -2.4751 -2.1691 0.0 0
M  V30 21 C -2.0684 -3.0826 0.0 0
M  V30 22 C -0.4048 -3.7212 0.0 0
M  V30 23 C -3.4533 -1.9612 0.0 0
M  V30 24 C -2.5684 -3.9487 0.0 0
M  V30 25 C -4.1224 -2.7043 0.0 0
M  V30 26 C -5.1006 -2.4964 0.0 0
M  V30 27 C -3.8134 -3.6554 0.0 0
M  V30 28 C -5.7697 -3.2395 0.0 0
M  V30 29 C -4.4825 -4.3985 0.0 0
M  V30 30 C -5.4607 -4.1906 0.0 0
M  V30 31 C -6.1298 -4.9337 0.0 0
M  V30 32 C -7.108 -4.7258 0.0 0
M  V30 33 C -5.8208 -5.8848 0.0 0
M  V30 34 C -7.417 -3.7748 0.0 0
M  V30 35 C -7.7771 -5.469 0.0 0
M  V30 36 C -6.4899 -6.6279 0.0 0
M  V30 37 O -6.7478 -3.0316 0.0 0
M  V30 38 O -8.3951 -3.5669 0.0 0
M  V30 39 C -7.4681 -6.42 0.0 0
M  V30 END ATOM
M  V30 BEGIN BOND
M  V30 1 1 1 2
M  V30 2 2 2 3
M  V30 3 1 2 4
M  V30 4 1 3 5
M  V30 5 2 4 6
M  V30 6 2 5 7
M  V30 7 1 7 8
M  V30 8 1 8 9
M  V30 9 1 8 10 CFG=3
M  V30 10 1 9 11
M  V30 11 2 11 12
M  V30 12 1 11 13
M  V30 13 2 13 14
M  V30 14 1 13 15
M  V30 15 1 14 16
M  V30 16 2 15 17
M  V30 17 2 16 18
M  V30 18 1 16 19
M  V30 19 1 18 20
M  V30 20 2 19 21
M  V30 21 1 19 22
M  V30 22 1 20 23
M  V30 23 1 21 24
M  V30 24 1 23 25
M  V30 25 2 25 26
M  V30 26 1 25 27
M  V30 27 1 26 28
M  V30 28 2 27 29
M  V30 29 2 28 30
M  V30 30 1 30 31
M  V30 31 2 31 32
M  V30 32 1 31 33
M  V30 33 1 32 34
M  V30 34 1 32 35
M  V30 35 2 33 36
M  V30 36 2 34 37
M  V30 37 1 34 38
M  V30 38 2 35 39
M  V30 39 1 6 7
M  V30 40 1 17 18
M  V30 41 1 20 21
M  V30 42 1 29 30
M  V30 43 1 36 39
M  V30 END BOND
M  V30 BEGIN COLLECTION
M  V30 MDLV30/STEABS ATOMS=(1 8)
M  V30 END COLLECTION
M  V30 END CTAB
M  END
>  <Molecule ChEMBL ID>
CHEMBL3695846

>  <Smiles>
Cc1c(C)n(Cc2ccc(-c3ccccc3C(=O)O)cc2)c2ccc(C(=O)N[C@H](C)c3ccc(F)cc3)cc12

>  <IC50_nM>
0.8

>  <Assay Description>
Lanthascreen Competitive Binding Assay: The assay was performed according to manufacturer protocol. A mixture of nM GST-PPARG-LBD, 5 nM Tb-GST-antibody, 5 nM Fluormone Pan-PPAR Green, and serial dilutions of the experimental compound, beginning at 10 ׬M downwards, was added to wells of black 384-well low-volume plates (Greiner) to a total volume of 18 ׬L. All dilutions were made in TR-FRET assay buffer C. DMSO at 2% final concentration was used as a no-ligand control. Experiment was performed in triplicate, and incubated for 2 hours in the dark prior to assay read in Perkin Elmer ViewLux ultra HTS microplate reader. FRET signal was measured by excitation at 340 nm and emission at 520 nm for fluorescein and 490 nm for terbium. Fold change over DMSO was calculated using GraphPad Prism Software (La Jolla, Calif.) by calculating 520 nm/490 nm ratio. Graphs were plotted as fold change of FRET signal for compound treatment over DMSO-only control.

$$$$
CHEMBL3695847
Actelion Java MolfileCreator 2.0

  0  0  0  0  0  0              0 V3000
M  V30 BEGIN CTAB
M  V30 COUNTS 40 44 0 0 0
M  V30 BEGIN ATOM
M  V30 1 O 13.5913 -3.5669 0.0 0
M  V30 2 C 12.6131 -3.7748 0.0 0
M  V30 3 O 11.944 -3.0316 0.0 0
M  V30 4 C 12.3041 -4.7258 0.0 0
M  V30 5 C 11.326 -4.9337 0.0 0
M  V30 6 C 12.9732 -5.469 0.0 0
M  V30 7 C 10.6568 -4.1906 0.0 0
M  V30 8 C 11.017 -5.8848 0.0 0
M  V30 9 C 12.6642 -6.42 0.0 0
M  V30 10 C 10.9659 -3.2395 0.0 0
M  V30 11 C 9.6787 -4.3985 0.0 0
M  V30 12 C 11.6861 -6.6279 0.0 0
M  V30 13 C 10.2967 -2.4964 0.0 0
M  V30 14 C 9.0096 -3.6554 0.0 0
M  V30 15 C 9.3186 -2.7043 0.0 0
M  V30 16 C 8.6494 -1.9612 0.0 0
M  V30 17 N 7.6713 -2.1691 0.0 0
M  V30 18 C 6.9282 -1.4999 0.0 0
M  V30 19 C 7.2646 -3.0826 0.0 0
M  V30 20 C 6.0621 -2.0 0.0 0
M  V30 21 C 6.9282 -0.5 0.0 0
M  V30 22 C 6.27 -2.9781 0.0 0
M  V30 23 C 7.7646 -3.9487 0.0 0
M  V30 24 C 5.1961 -1.5 0.0 0
M  V30 25 C 6.0621 0.0 0.0 0
M  V30 26 C 5.6009 -3.7212 0.0 0
M  V30 27 C 5.1961 -0.5 0.0 0
M  V30 28 C 4.3301 0.0 0.0 0
M  V30 29 O 4.3301 1.0 0.0 0
M  V30 30 N 3.4641 -0.5 0.0 0
M  V30 31 C 2.598 0.0 0.0 0 CFG=2
M  V30 32 C 2.598 1.0 0.0 0
M  V30 33 C 1.732 -0.5 0.0 0
M  V30 34 C 3.4641 1.5 0.0 0
M  V30 35 C 1.732 1.4999 0.0 0
M  V30 36 C 0.866 0.0 0.0 0
M  V30 37 C 3.4641 2.5 0.0 0
M  V30 38 C 1.732 2.5 0.0 0
M  V30 39 C 0.0 -0.5 0.0 0
M  V30 40 C 2.598 3.0 0.0 0
M  V30 END ATOM
M  V30 BEGIN BOND
M  V30 1 2 1 2
M  V30 2 1 2 3
M  V30 3 1 2 4
M  V30 4 2 4 5
M  V30 5 1 4 6
M  V30 6 1 5 7
M  V30 7 1 5 8
M  V30 8 2 6 9
M  V30 9 2 7 10
M  V30 10 1 7 11
M  V30 11 2 8 12
M  V30 12 1 10 13
M  V30 13 2 11 14
M  V30 14 2 13 15
M  V30 15 1 15 16
M  V30 16 1 16 17
M  V30 17 1 17 18
M  V30 18 1 17 19
M  V30 19 2 18 20
M  V30 20 1 18 21
M  V30 21 2 19 22
M  V30 22 1 19 23
M  V30 23 1 20 24
M  V30 24 2 21 25
M  V30 25 1 22 26
M  V30 26 2 24 27
M  V30 27 1 27 28
M  V30 28 2 28 29
M  V30 29 1 28 30
M  V30 30 1 31 30 CFG=1
M  V30 31 1 31 32
M  V30 32 1 31 33
M  V30 33 2 32 34
M  V30 34 1 32 35
M  V30 35 1 33 36
M  V30 36 1 34 37
M  V30 37 2 35 38
M  V30 38 1 36 39
M  V30 39 2 37 40
M  V30 40 1 9 12
M  V30 41 1 14 15
M  V30 42 1 20 22
M  V30 43 1 25 27
M  V30 44 1 38 40
M  V30 END BOND
M  V30 BEGIN COLLECTION
M  V30 MDLV30/STEABS ATOMS=(1 31)
M  V30 END COLLECTION
M  V30 END CTAB
M  END
>  <Molecule ChEMBL ID>
CHEMBL3695847

>  <Smiles>
CCC[C@H](NC(=O)c1ccc2c(c1)c(C)c(C)n2Cc1ccc(-c2ccccc2C(=O)O)cc1)c1ccccc1

>  <IC50_nM>
0.8

>  <Assay Description>
Lanthascreen Competitive Binding Assay: The assay was performed according to manufacturer protocol. A mixture of nM GST-PPARG-LBD, 5 nM Tb-GST-antibody, 5 nM Fluormone Pan-PPAR Green, and serial dilutions of the experimental compound, beginning at 10 ׬M downwards, was added to wells of black 384-well low-volume plates (Greiner) to a total volume of 18 ׬L. All dilutions were made in TR-FRET assay buffer C. DMSO at 2% final concentration was used as a no-ligand control. Experiment was performed in triplicate, and incubated for 2 hours in the dark prior to assay read in Perkin Elmer ViewLux ultra HTS microplate reader. FRET signal was measured by excitation at 340 nm and emission at 520 nm for fluorescein and 490 nm for terbium. Fold change over DMSO was calculated using GraphPad Prism Software (La Jolla, Calif.) by calculating 520 nm/490 nm ratio. Graphs were plotted as fold change of FRET signal for compound treatment over DMSO-only control.

$$$$
CHEMBL3695776
Actelion Java MolfileCreator 2.0

  0  0  0  0  0  0              0 V3000
M  V30 BEGIN CTAB
M  V30 COUNTS 40 44 0 0 0
M  V30 BEGIN ATOM
M  V30 1 O 11.8592 -3.5669 0.0 0
M  V30 2 C 10.8811 -3.7748 0.0 0
M  V30 3 O 10.212 -3.0316 0.0 0
M  V30 4 C 10.5721 -4.7258 0.0 0
M  V30 5 C 9.5939 -4.9337 0.0 0
M  V30 6 C 11.2412 -5.469 0.0 0
M  V30 7 C 8.9248 -4.1906 0.0 0
M  V30 8 C 9.2849 -5.8848 0.0 0
M  V30 9 C 10.9322 -6.42 0.0 0
M  V30 10 C 9.2338 -3.2395 0.0 0
M  V30 11 C 7.9466 -4.3985 0.0 0
M  V30 12 C 9.954 -6.6279 0.0 0
M  V30 13 C 8.5647 -2.4964 0.0 0
M  V30 14 C 7.2775 -3.6554 0.0 0
M  V30 15 C 7.5865 -2.7043 0.0 0
M  V30 16 C 6.9174 -1.9612 0.0 0
M  V30 17 N 5.9392 -2.1691 0.0 0
M  V30 18 C 5.1961 -1.4999 0.0 0
M  V30 19 C 5.5325 -3.0826 0.0 0
M  V30 20 C 4.3301 -1.9999 0.0 0
M  V30 21 C 5.1961 -0.4999 0.0 0
M  V30 22 C 4.538 -2.9781 0.0 0
M  V30 23 C 6.0325 -3.9487 0.0 0
M  V30 24 C 3.4641 -1.5 0.0 0
M  V30 25 C 4.3301 0.0 0.0 0
M  V30 26 C 3.8689 -3.7212 0.0 0
M  V30 27 C 3.4641 -0.5 0.0 0
M  V30 28 C 2.598 0.0 0.0 0
M  V30 29 O 2.598 1.0 0.0 0
M  V30 30 N 1.732 -0.5 0.0 0
M  V30 31 C 0.866 0.0 0.0 0 CFG=2
M  V30 32 C 0.866 1.0 0.0 0
M  V30 33 C 0.0 -0.5 0.0 0
M  V30 34 C 1.732 1.5 0.0 0
M  V30 35 C 0.0 1.4999 0.0 0
M  V30 36 C 1.732 2.4999 0.0 0
M  V30 37 C 0.0 2.4999 0.0 0
M  V30 38 C 0.866 2.9999 0.0 0
M  V30 39 O 0.866 3.9999 0.0 0
M  V30 40 C 0.0 4.5 0.0 0
M  V30 END ATOM
M  V30 BEGIN BOND
M  V30 1 2 1 2
M  V30 2 1 2 3
M  V30 3 1 2 4
M  V30 4 2 4 5
M  V30 5 1 4 6
M  V30 6 1 5 7
M  V30 7 1 5 8
M  V30 8 2 6 9
M  V30 9 2 7 10
M  V30 10 1 7 11
M  V30 11 2 8 12
M  V30 12 1 10 13
M  V30 13 2 11 14
M  V30 14 2 13 15
M  V30 15 1 15 16
M  V30 16 1 16 17
M  V30 17 1 17 18
M  V30 18 1 17 19
M  V30 19 2 18 20
M  V30 20 1 18 21
M  V30 21 2 19 22
M  V30 22 1 19 23
M  V30 23 1 20 24
M  V30 24 2 21 25
M  V30 25 1 22 26
M  V30 26 2 24 27
M  V30 27 1 27 28
M  V30 28 2 28 29
M  V30 29 1 28 30
M  V30 30 1 30 31
M  V30 31 1 31 32
M  V30 32 1 31 33 CFG=1
M  V30 33 2 32 34
M  V30 34 1 32 35
M  V30 35 1 34 36
M  V30 36 2 35 37
M  V30 37 2 36 38
M  V30 38 1 38 39
M  V30 39 1 39 40
M  V30 40 1 9 12
M  V30 41 1 14 15
M  V30 42 1 20 22
M  V30 43 1 25 27
M  V30 44 1 37 38
M  V30 END BOND
M  V30 BEGIN COLLECTION
M  V30 MDLV30/STEABS ATOMS=(1 31)
M  V30 END COLLECTION
M  V30 END CTAB
M  END
>  <Molecule ChEMBL ID>
CHEMBL3695776

>  <Smiles>
COc1ccc([C@H](C)NC(=O)c2ccc3c(c2)c(C)c(C)n3Cc2ccc(-c3ccccc3C(=O)O)cc2)cc1

>  <IC50_nM>
0.9

>  <Assay Description>
Binding affinity to GST-tagged PPAR-gamma-LBD (unknown origin) after 2 hrs by Lantha screen assay using fluormone Pan-PPAR green probe

$$$$
CHEMBL3695776
Actelion Java MolfileCreator 2.0

  0  0  0  0  0  0              0 V3000
M  V30 BEGIN CTAB
M  V30 COUNTS 40 44 0 0 0
M  V30 BEGIN ATOM
M  V30 1 O 11.8592 -3.5669 0.0 0
M  V30 2 C 10.8811 -3.7748 0.0 0
M  V30 3 O 10.212 -3.0316 0.0 0
M  V30 4 C 10.5721 -4.7258 0.0 0
M  V30 5 C 9.5939 -4.9337 0.0 0
M  V30 6 C 11.2412 -5.469 0.0 0
M  V30 7 C 8.9248 -4.1906 0.0 0
M  V30 8 C 9.2849 -5.8848 0.0 0
M  V30 9 C 10.9322 -6.42 0.0 0
M  V30 10 C 9.2338 -3.2395 0.0 0
M  V30 11 C 7.9466 -4.3985 0.0 0
M  V30 12 C 9.954 -6.6279 0.0 0
M  V30 13 C 8.5647 -2.4964 0.0 0
M  V30 14 C 7.2775 -3.6554 0.0 0
M  V30 15 C 7.5865 -2.7043 0.0 0
M  V30 16 C 6.9174 -1.9612 0.0 0
M  V30 17 N 5.9392 -2.1691 0.0 0
M  V30 18 C 5.1961 -1.4999 0.0 0
M  V30 19 C 5.5325 -3.0826 0.0 0
M  V30 20 C 4.3301 -1.9999 0.0 0
M  V30 21 C 5.1961 -0.4999 0.0 0
M  V30 22 C 4.538 -2.9781 0.0 0
M  V30 23 C 6.0325 -3.9487 0.0 0
M  V30 24 C 3.4641 -1.5 0.0 0
M  V30 25 C 4.3301 0.0 0.0 0
M  V30 26 C 3.8689 -3.7212 0.0 0
M  V30 27 C 3.4641 -0.5 0.0 0
M  V30 28 C 2.598 0.0 0.0 0
M  V30 29 O 2.598 1.0 0.0 0
M  V30 30 N 1.732 -0.5 0.0 0
M  V30 31 C 0.866 0.0 0.0 0 CFG=2
M  V30 32 C 0.866 1.0 0.0 0
M  V30 33 C 0.0 -0.5 0.0 0
M  V30 34 C 1.732 1.5 0.0 0
M  V30 35 C 0.0 1.4999 0.0 0
M  V30 36 C 1.732 2.4999 0.0 0
M  V30 37 C 0.0 2.4999 0.0 0
M  V30 38 C 0.866 2.9999 0.0 0
M  V30 39 O 0.866 3.9999 0.0 0
M  V30 40 C 0.0 4.5 0.0 0
M  V30 END ATOM
M  V30 BEGIN BOND
M  V30 1 2 1 2
M  V30 2 1 2 3
M  V30 3 1 2 4
M  V30 4 2 4 5
M  V30 5 1 4 6
M  V30 6 1 5 7
M  V30 7 1 5 8
M  V30 8 2 6 9
M  V30 9 2 7 10
M  V30 10 1 7 11
M  V30 11 2 8 12
M  V30 12 1 10 13
M  V30 13 2 11 14
M  V30 14 2 13 15
M  V30 15 1 15 16
M  V30 16 1 16 17
M  V30 17 1 17 18
M  V30 18 1 17 19
M  V30 19 2 18 20
M  V30 20 1 18 21
M  V30 21 2 19 22
M  V30 22 1 19 23
M  V30 23 1 20 24
M  V30 24 2 21 25
M  V30 25 1 22 26
M  V30 26 2 24 27
M  V30 27 1 27 28
M  V30 28 2 28 29
M  V30 29 1 28 30
M  V30 30 1 30 31
M  V30 31 1 31 32
M  V30 32 1 31 33 CFG=1
M  V30 33 2 32 34
M  V30 34 1 32 35
M  V30 35 1 34 36
M  V30 36 2 35 37
M  V30 37 2 36 38
M  V30 38 1 38 39
M  V30 39 1 39 40
M  V30 40 1 9 12
M  V30 41 1 14 15
M  V30 42 1 20 22
M  V30 43 1 25 27
M  V30 44 1 37 38
M  V30 END BOND
M  V30 BEGIN COLLECTION
M  V30 MDLV30/STEABS ATOMS=(1 31)
M  V30 END COLLECTION
M  V30 END CTAB
M  END
>  <Molecule ChEMBL ID>
CHEMBL3695776

>  <Smiles>
COc1ccc([C@H](C)NC(=O)c2ccc3c(c2)c(C)c(C)n3Cc2ccc(-c3ccccc3C(=O)O)cc2)cc1

>  <IC50_nM>
0.9

>  <Assay Description>
Lanthascreen Competitive Binding Assay: The assay was performed according to manufacturer protocol. A mixture of nM GST-PPARG-LBD, 5 nM Tb-GST-antibody, 5 nM Fluormone Pan-PPAR Green, and serial dilutions of the experimental compound, beginning at 10 ׬M downwards, was added to wells of black 384-well low-volume plates (Greiner) to a total volume of 18 ׬L. All dilutions were made in TR-FRET assay buffer C. DMSO at 2% final concentration was used as a no-ligand control. Experiment was performed in triplicate, and incubated for 2 hours in the dark prior to assay read in Perkin Elmer ViewLux ultra HTS microplate reader. FRET signal was measured by excitation at 340 nm and emission at 520 nm for fluorescein and 490 nm for terbium. Fold change over DMSO was calculated using GraphPad Prism Software (La Jolla, Calif.) by calculating 520 nm/490 nm ratio. Graphs were plotted as fold change of FRET signal for compound treatment over DMSO-only control.

$$$$
CHEMBL460072
Actelion Java MolfileCreator 2.0

  0  0  0  0  0  0              0 V3000
M  V30 BEGIN CTAB
M  V30 COUNTS 36 39 0 0 0
M  V30 BEGIN ATOM
M  V30 1 F 4.3301 0.9999 0.0 0
M  V30 2 C 4.3301 0.0 0.0 0
M  V30 3 C 3.4641 -0.5 0.0 0
M  V30 4 C 5.1961 -0.5 0.0 0
M  V30 5 O 2.598 0.0 0.0 0
M  V30 6 C 3.4641 -1.5 0.0 0
M  V30 7 C 5.1961 -1.5 0.0 0
M  V30 8 C 1.732 -0.5 0.0 0 CFG=2
M  V30 9 C 4.3301 -2.0 0.0 0
M  V30 10 C 0.866 0.0 0.0 0
M  V30 11 C 1.732 -1.5 0.0 0
M  V30 12 C 4.3301 -3.0 0.0 0
M  V30 13 O 0.866 1.0 0.0 0
M  V30 14 O 0.0 -0.5 0.0 0
M  V30 15 N 5.1961 -3.5 0.0 0
M  V30 16 C 5.3006 -4.4945 0.0 0
M  V30 17 C 6.1096 -3.0932 0.0 0
M  V30 18 N 4.6315 -5.2376 0.0 0
M  V30 19 C 6.2788 -4.7024 0.0 0
M  V30 20 C 6.7788 -3.8364 0.0 0
M  V30 21 C 6.3176 -2.1151 0.0 0
M  V30 22 C 4.9405 -6.1887 0.0 0
M  V30 23 C 6.5878 -5.6534 0.0 0
M  V30 24 C 7.7733 -3.7318 0.0 0
M  V30 25 O 4.2714 -6.9318 0.0 0
M  V30 26 C 5.9187 -6.3966 0.0 0
M  V30 27 O 8.3611 -4.5408 0.0 0
M  V30 28 C 8.18 -2.8183 0.0 0
M  V30 29 C 4.5804 -7.8829 0.0 0
M  V30 30 C 9.1746 -2.7138 0.0 0
M  V30 31 C 7.5923 -2.0093 0.0 0
M  V30 32 C 9.5813 -1.8002 0.0 0
M  V30 33 C 7.999 -1.0957 0.0 0
M  V30 34 C 8.9935 -0.9912 0.0 0
M  V30 35 O 9.4002 -0.0776 0.0 0
M  V30 36 C 8.8125 0.7313 0.0 0
M  V30 END ATOM
M  V30 BEGIN BOND
M  V30 1 1 1 2
M  V30 2 2 2 3
M  V30 3 1 2 4
M  V30 4 1 3 5
M  V30 5 1 3 6
M  V30 6 2 4 7
M  V30 7 1 5 8
M  V30 8 2 6 9
M  V30 9 1 8 10
M  V30 10 1 8 11 CFG=1
M  V30 11 1 9 12
M  V30 12 2 10 13
M  V30 13 1 10 14
M  V30 14 1 12 15
M  V30 15 1 15 16
M  V30 16 1 15 17
M  V30 17 2 16 18
M  V30 18 1 16 19
M  V30 19 2 17 20
M  V30 20 1 17 21
M  V30 21 1 18 22
M  V30 22 2 19 23
M  V30 23 1 20 24
M  V30 24 1 22 25
M  V30 25 2 22 26
M  V30 26 2 24 27
M  V30 27 1 24 28
M  V30 28 1 25 29
M  V30 29 2 28 30
M  V30 30 1 28 31
M  V30 31 1 30 32
M  V30 32 2 31 33
M  V30 33 2 32 34
M  V30 34 1 34 35
M  V30 35 1 35 36
M  V30 36 1 7 9
M  V30 37 1 19 20
M  V30 38 1 23 26
M  V30 39 1 33 34
M  V30 END BOND
M  V30 BEGIN COLLECTION
M  V30 MDLV30/STEABS ATOMS=(1 8)
M  V30 END COLLECTION
M  V30 END CTAB
M  END
>  <Molecule ChEMBL ID>
CHEMBL460072

>  <Smiles>
COc1ccc(C(=O)c2c(C)n(Cc3ccc(F)c(O[C@@H](C)C(=O)O)c3)c3nc(OC)ccc23)cc1

>  <IC50_nM>
1

>  <Assay Description>
Displacement of [3H]2AD-5075 from GST-tagged human PPARgamma receptor expressed in Escherichia coli BL21

$$$$
CHEMBL361395
Actelion Java MolfileCreator 2.0

  0  0  0  0  0  0              0 V3000
M  V30 BEGIN CTAB
M  V30 COUNTS 39 42 0 0 0
M  V30 BEGIN ATOM
M  V30 1 F 11.6698 -3.6435 0.0 0
M  V30 2 C 10.5551 -2.6398 0.0 0
M  V30 3 F 9.5514 -3.7545 0.0 0
M  V30 4 F 9.4404 -1.6361 0.0 0
M  V30 5 O 11.5588 -1.5251 0.0 0
M  V30 6 C 11.0953 -0.0985 0.0 0
M  V30 7 C 9.628 0.2133 0.0 0
M  V30 8 C 12.099 1.0161 0.0 0
M  V30 9 C 9.1645 1.6398 0.0 0
M  V30 10 C 11.6354 2.4427 0.0 0
M  V30 11 C 10.1682 2.7546 0.0 0
M  V30 12 C 7.7942 2.25 0.0 0
M  V30 13 N 9.4182 4.0536 0.0 0
M  V30 14 C 7.951 3.7417 0.0 0
M  V30 15 C 6.4951 1.5 0.0 0
M  V30 16 C 10.0283 5.4239 0.0 0
M  V30 17 C 6.8363 4.7454 0.0 0
M  V30 18 C 6.4951 0.0 0.0 0
M  V30 19 O 11.5201 5.5807 0.0 0
M  V30 20 C 9.1466 6.6375 0.0 0
M  V30 21 C 5.1961 -0.75 0.0 0
M  V30 22 C 7.7942 -0.75 0.0 0
M  V30 23 C 9.7567 8.0078 0.0 0
M  V30 24 C 7.6548 6.4807 0.0 0
M  V30 25 O 3.8971 0.0 0.0 0
M  V30 26 C 5.1961 -2.25 0.0 0
M  V30 27 C 7.7942 -2.25 0.0 0
M  V30 28 C 8.8751 9.2213 0.0 0
M  V30 29 C 6.7732 7.6942 0.0 0
M  V30 30 C 2.598 -0.75 0.0 0
M  V30 31 C 6.4951 -3.0 0.0 0
M  V30 32 C 7.3833 9.0645 0.0 0
M  V30 33 C 1.299 0.0 0.0 0
M  V30 34 C 1.848 -2.049 0.0 0
M  V30 35 C 3.348 -2.049 0.0 0
M  V30 36 O 6.5016 10.278 0.0 0
M  V30 37 O 1.299 1.5 0.0 0
M  V30 38 O 0.0 -0.75 0.0 0
M  V30 39 C 5.0098 10.1212 0.0 0
M  V30 END ATOM
M  V30 BEGIN BOND
M  V30 1 1 1 2
M  V30 2 1 2 3
M  V30 3 1 2 4
M  V30 4 1 2 5
M  V30 5 1 5 6
M  V30 6 2 6 7
M  V30 7 1 6 8
M  V30 8 1 7 9
M  V30 9 2 8 10
M  V30 10 2 9 11
M  V30 11 1 9 12
M  V30 12 1 11 13
M  V30 13 2 12 14
M  V30 14 1 12 15
M  V30 15 1 13 16
M  V30 16 1 14 17
M  V30 17 1 15 18
M  V30 18 2 16 19
M  V30 19 1 16 20
M  V30 20 2 18 21
M  V30 21 1 18 22
M  V30 22 2 20 23
M  V30 23 1 20 24
M  V30 24 1 21 25
M  V30 25 1 21 26
M  V30 26 2 22 27
M  V30 27 1 23 28
M  V30 28 2 24 29
M  V30 29 1 25 30
M  V30 30 2 26 31
M  V30 31 2 28 32
M  V30 32 1 30 33
M  V30 33 1 30 34
M  V30 34 1 30 35
M  V30 35 1 32 36
M  V30 36 2 33 37
M  V30 37 1 33 38
M  V30 38 1 36 39
M  V30 39 1 10 11
M  V30 40 1 13 14
M  V30 41 1 27 31
M  V30 42 1 29 32
M  V30 END BOND
M  V30 END CTAB
M  END
>  <Molecule ChEMBL ID>
CHEMBL361395

>  <Smiles>
COc1ccc(C(=O)n2c(C)c(Cc3ccccc3OC(C)(C)C(=O)O)c3cc(OC(F)(F)F)ccc32)cc1

>  <IC50_nM>
1

>  <Assay Description>
In vitro inhibition of human Peroxisome proliferator activated receptor gamma

$$$$
CHEMBL602469
Actelion Java MolfileCreator 2.0

  0  0  0  0  0  0              0 V3000
M  V30 BEGIN CTAB
M  V30 COUNTS 37 41 0 0 0
M  V30 BEGIN ATOM
M  V30 1 O 11.8592 -3.5669 0.0 0
M  V30 2 C 10.8811 -3.7748 0.0 0
M  V30 3 O 10.212 -3.0316 0.0 0
M  V30 4 C 10.5721 -4.7258 0.0 0
M  V30 5 C 9.5939 -4.9337 0.0 0
M  V30 6 C 11.2412 -5.469 0.0 0
M  V30 7 C 8.9248 -4.1906 0.0 0
M  V30 8 C 9.2849 -5.8848 0.0 0
M  V30 9 C 10.9322 -6.42 0.0 0
M  V30 10 C 9.2338 -3.2395 0.0 0
M  V30 11 C 7.9466 -4.3985 0.0 0
M  V30 12 C 9.954 -6.6279 0.0 0
M  V30 13 C 8.5647 -2.4964 0.0 0
M  V30 14 C 7.2775 -3.6554 0.0 0
M  V30 15 C 7.5865 -2.7043 0.0 0
M  V30 16 C 6.9174 -1.9612 0.0 0
M  V30 17 N 5.9392 -2.1691 0.0 0
M  V30 18 C 5.1961 -1.4999 0.0 0
M  V30 19 C 5.5325 -3.0826 0.0 0
M  V30 20 C 4.3301 -1.9999 0.0 0
M  V30 21 C 5.1961 -0.4999 0.0 0
M  V30 22 C 4.538 -2.9781 0.0 0
M  V30 23 C 6.0325 -3.9487 0.0 0
M  V30 24 C 3.4641 -1.5 0.0 0
M  V30 25 C 4.3301 0.0 0.0 0
M  V30 26 C 3.8689 -3.7212 0.0 0
M  V30 27 C 3.4641 -0.5 0.0 0
M  V30 28 C 2.598 0.0 0.0 0
M  V30 29 O 2.598 1.0 0.0 0
M  V30 30 N 1.732 -0.5 0.0 0
M  V30 31 C 0.866 0.0 0.0 0
M  V30 32 C 0.0 -0.5 0.0 0
M  V30 33 C -0.866 0.0 0.0 0
M  V30 34 C 0.0 -1.4999 0.0 0
M  V30 35 C -1.732 -0.4999 0.0 0
M  V30 36 C -0.866 -1.9999 0.0 0
M  V30 37 C -1.732 -1.4999 0.0 0
M  V30 END ATOM
M  V30 BEGIN BOND
M  V30 1 2 1 2
M  V30 2 1 2 3
M  V30 3 1 2 4
M  V30 4 2 4 5
M  V30 5 1 4 6
M  V30 6 1 5 7
M  V30 7 1 5 8
M  V30 8 2 6 9
M  V30 9 2 7 10
M  V30 10 1 7 11
M  V30 11 2 8 12
M  V30 12 1 10 13
M  V30 13 2 11 14
M  V30 14 2 13 15
M  V30 15 1 15 16
M  V30 16 1 16 17
M  V30 17 1 17 18
M  V30 18 1 17 19
M  V30 19 2 18 20
M  V30 20 1 18 21
M  V30 21 2 19 22
M  V30 22 1 19 23
M  V30 23 1 20 24
M  V30 24 2 21 25
M  V30 25 1 22 26
M  V30 26 2 24 27
M  V30 27 1 27 28
M  V30 28 2 28 29
M  V30 29 1 28 30
M  V30 30 1 30 31
M  V30 31 1 31 32
M  V30 32 2 32 33
M  V30 33 1 32 34
M  V30 34 1 33 35
M  V30 35 2 34 36
M  V30 36 2 35 37
M  V30 37 1 9 12
M  V30 38 1 14 15
M  V30 39 1 20 22
M  V30 40 1 25 27
M  V30 41 1 36 37
M  V30 END BOND
M  V30 END CTAB
M  END
>  <Molecule ChEMBL ID>
CHEMBL602469

>  <Smiles>
Cc1c(C)n(Cc2ccc(-c3ccccc3C(=O)O)cc2)c2ccc(C(=O)NCc3ccccc3)cc12

>  <IC50_nM>
1

>  <Assay Description>
Binding affinity to GST-tagged PPAR-gamma-LBD (unknown origin) after 2 hrs by Lantha screen assay using fluormone Pan-PPAR green probe

$$$$
CHEMBL192691
Actelion Java MolfileCreator 2.0

  0  0  0  0  0  0              0 V3000
M  V30 BEGIN CTAB
M  V30 COUNTS 36 39 0 0 0
M  V30 BEGIN ATOM
M  V30 1 F 4.8174 -4.7021 0.0 0
M  V30 2 C 5.0253 -3.7239 0.0 0
M  V30 3 F 4.0471 -3.516 0.0 0
M  V30 4 F 5.2332 -2.7458 0.0 0
M  V30 5 O 6.0034 -3.9318 0.0 0
M  V30 6 C 6.6726 -3.1887 0.0 0
M  V30 7 C 6.3636 -2.2376 0.0 0
M  V30 8 C 7.6507 -3.3966 0.0 0
M  V30 9 C 7.0327 -1.4945 0.0 0
M  V30 10 C 8.3198 -2.6534 0.0 0
M  V30 11 C 8.0108 -1.7024 0.0 0
M  V30 12 C 6.9282 -0.5 0.0 0
M  V30 13 N 8.5108 -0.8364 0.0 0
M  V30 14 C 7.8417 -0.0932 0.0 0
M  V30 15 C 6.0621 0.0 0.0 0
M  V30 16 C 9.5054 -0.7318 0.0 0
M  V30 17 C 8.0496 0.8848 0.0 0
M  V30 18 C 5.1961 -0.5 0.0 0
M  V30 19 C 10.0931 -1.5408 0.0 0
M  V30 20 C 9.9121 0.1816 0.0 0
M  V30 21 C 4.3301 0.0 0.0 0
M  V30 22 C 5.1961 -1.4999 0.0 0
M  V30 23 C 11.0877 -1.4363 0.0 0
M  V30 24 C 10.9066 0.2861 0.0 0
M  V30 25 C 3.4641 -0.5 0.0 0
M  V30 26 C 4.3301 -1.9999 0.0 0
M  V30 27 C 11.4944 -0.5228 0.0 0
M  V30 28 O 2.598 0.0 0.0 0
M  V30 29 C 3.4641 -1.4999 0.0 0
M  V30 30 O 12.4889 -0.4182 0.0 0
M  V30 31 C 1.732 -0.5 0.0 0 CFG=2
M  V30 32 C 12.8957 0.4952 0.0 0
M  V30 33 C 0.866 0.0 0.0 0
M  V30 34 C 1.732 -1.5 0.0 0
M  V30 35 O 0.866 1.0 0.0 0
M  V30 36 O 0.0 -0.5 0.0 0
M  V30 END ATOM
M  V30 BEGIN BOND
M  V30 1 1 1 2
M  V30 2 1 2 3
M  V30 3 1 2 4
M  V30 4 1 2 5
M  V30 5 1 5 6
M  V30 6 2 6 7
M  V30 7 1 6 8
M  V30 8 1 7 9
M  V30 9 2 8 10
M  V30 10 2 9 11
M  V30 11 1 9 12
M  V30 12 1 11 13
M  V30 13 2 12 14
M  V30 14 1 12 15
M  V30 15 1 13 16
M  V30 16 1 14 17
M  V30 17 1 15 18
M  V30 18 2 16 19
M  V30 19 1 16 20
M  V30 20 2 18 21
M  V30 21 1 18 22
M  V30 22 1 19 23
M  V30 23 2 20 24
M  V30 24 1 21 25
M  V30 25 2 22 26
M  V30 26 2 23 27
M  V30 27 1 25 28
M  V30 28 2 25 29
M  V30 29 1 27 30
M  V30 30 1 28 31
M  V30 31 1 30 32
M  V30 32 1 31 33
M  V30 33 1 31 34 CFG=1
M  V30 34 2 33 35
M  V30 35 1 33 36
M  V30 36 1 10 11
M  V30 37 1 13 14
M  V30 38 1 24 27
M  V30 39 1 26 29
M  V30 END BOND
M  V30 BEGIN COLLECTION
M  V30 MDLV30/STEABS ATOMS=(1 31)
M  V30 END COLLECTION
M  V30 END CTAB
M  END
>  <Molecule ChEMBL ID>
CHEMBL192691

>  <Smiles>
COc1ccc(-n2c(C)c(Cc3cccc(O[C@@H](C)C(=O)O)c3)c3cc(OC(F)(F)F)ccc32)cc1

>  <IC50_nM>
1

>  <Assay Description>
Inhibition of human peroxisome proliferator activated receptor gamma binding

$$$$
CHEMBL3695868
Actelion Java MolfileCreator 2.0

  0  0  0  0  0  0              0 V3000
M  V30 BEGIN CTAB
M  V30 COUNTS 37 41 0 0 0
M  V30 BEGIN ATOM
M  V30 1 F 6.0621 0.0 0.0 0
M  V30 2 C 5.1961 -0.5 0.0 0
M  V30 3 C 4.3301 0.0 0.0 0
M  V30 4 C 5.1961 -1.4999 0.0 0
M  V30 5 C 3.4641 -0.5 0.0 0
M  V30 6 C 4.3301 1.0 0.0 0
M  V30 7 C 4.3301 -1.9999 0.0 0
M  V30 8 C 3.4641 -1.4999 0.0 0
M  V30 9 C 2.598 0.0 0.0 0 CFG=1
M  V30 10 N 1.732 -0.5 0.0 0
M  V30 11 C 2.598 1.0 0.0 0
M  V30 12 C 0.866 0.0 0.0 0
M  V30 13 O 0.866 1.0 0.0 0
M  V30 14 C 0.0 -0.5 0.0 0
M  V30 15 C 0.0 -1.4999 0.0 0
M  V30 16 C -0.866 0.0 0.0 0
M  V30 17 C -0.866 -1.9999 0.0 0
M  V30 18 C -1.732 -0.4999 0.0 0
M  V30 19 C -1.732 -1.4999 0.0 0
M  V30 20 C -1.0739 -2.9781 0.0 0
M  V30 21 N -2.4751 -2.1691 0.0 0
M  V30 22 C -2.0684 -3.0826 0.0 0
M  V30 23 C -0.4048 -3.7212 0.0 0
M  V30 24 C -3.4533 -1.9612 0.0 0
M  V30 25 C -2.5684 -3.9487 0.0 0
M  V30 26 C -4.1224 -2.7043 0.0 0
M  V30 27 C -5.1006 -2.4964 0.0 0
M  V30 28 C -3.8134 -3.6554 0.0 0
M  V30 29 C -5.7697 -3.2395 0.0 0
M  V30 30 C -4.4825 -4.3985 0.0 0
M  V30 31 C -5.4607 -4.1906 0.0 0
M  V30 32 C -6.1298 -4.9337 0.0 0
M  V30 33 C -7.108 -4.7258 0.0 0
M  V30 34 C -5.8208 -5.8848 0.0 0
M  V30 35 C -7.7771 -5.469 0.0 0
M  V30 36 C -6.4899 -6.6279 0.0 0
M  V30 37 C -7.4681 -6.42 0.0 0
M  V30 END ATOM
M  V30 BEGIN BOND
M  V30 1 1 1 2
M  V30 2 2 2 3
M  V30 3 1 2 4
M  V30 4 1 3 5
M  V30 5 1 3 6
M  V30 6 2 4 7
M  V30 7 2 5 8
M  V30 8 1 5 9
M  V30 9 1 9 10
M  V30 10 1 9 11 CFG=1
M  V30 11 1 10 12
M  V30 12 2 12 13
M  V30 13 1 12 14
M  V30 14 2 14 15
M  V30 15 1 14 16
M  V30 16 1 15 17
M  V30 17 2 16 18
M  V30 18 2 17 19
M  V30 19 1 17 20
M  V30 20 1 19 21
M  V30 21 2 20 22
M  V30 22 1 20 23
M  V30 23 1 21 24
M  V30 24 1 22 25
M  V30 25 1 24 26
M  V30 26 2 26 27
M  V30 27 1 26 28
M  V30 28 1 27 29
M  V30 29 2 28 30
M  V30 30 2 29 31
M  V30 31 1 31 32
M  V30 32 2 32 33
M  V30 33 1 32 34
M  V30 34 1 33 35
M  V30 35 2 34 36
M  V30 36 2 35 37
M  V30 37 1 7 8
M  V30 38 1 18 19
M  V30 39 1 21 22
M  V30 40 1 30 31
M  V30 41 1 36 37
M  V30 END BOND
M  V30 BEGIN COLLECTION
M  V30 MDLV30/STEABS ATOMS=(1 9)
M  V30 END COLLECTION
M  V30 END CTAB
M  END
>  <Molecule ChEMBL ID>
CHEMBL3695868

>  <Smiles>
Cc1c(F)cccc1[C@H](C)NC(=O)c1ccc2c(c1)c(C)c(C)n2Cc1ccc(-c2ccccc2)cc1

>  <IC50_nM>
1

>  <Assay Description>
Lanthascreen Competitive Binding Assay: The assay was performed according to manufacturer protocol. A mixture of nM GST-PPARG-LBD, 5 nM Tb-GST-antibody, 5 nM Fluormone Pan-PPAR Green, and serial dilutions of the experimental compound, beginning at 10 ׬M downwards, was added to wells of black 384-well low-volume plates (Greiner) to a total volume of 18 ׬L. All dilutions were made in TR-FRET assay buffer C. DMSO at 2% final concentration was used as a no-ligand control. Experiment was performed in triplicate, and incubated for 2 hours in the dark prior to assay read in Perkin Elmer ViewLux ultra HTS microplate reader. FRET signal was measured by excitation at 340 nm and emission at 520 nm for fluorescein and 490 nm for terbium. Fold change over DMSO was calculated using GraphPad Prism Software (La Jolla, Calif.) by calculating 520 nm/490 nm ratio. Graphs were plotted as fold change of FRET signal for compound treatment over DMSO-only control.

$$$$
CHEMBL3695905
Actelion Java MolfileCreator 2.0

  0  0  0  0  0  0              0 V3000
M  V30 BEGIN CTAB
M  V30 COUNTS 41 46 0 0 0
M  V30 BEGIN ATOM
M  V30 1 Br 6.0621 0.0 0.0 0
M  V30 2 C 5.1961 -0.5 0.0 0
M  V30 3 C 4.3301 0.0 0.0 0
M  V30 4 C 5.1961 -1.4999 0.0 0
M  V30 5 C 3.4641 -0.5 0.0 0
M  V30 6 C 4.3301 -1.9999 0.0 0
M  V30 7 C 3.4641 -1.4999 0.0 0
M  V30 8 C 2.598 0.0 0.0 0 CFG=2
M  V30 9 N 1.732 -0.5 0.0 0
M  V30 10 C 2.598 1.0 0.0 0
M  V30 11 C 0.866 0.0 0.0 0
M  V30 12 O 0.866 1.0 0.0 0
M  V30 13 C 0.0 -0.5 0.0 0
M  V30 14 C 0.0 -1.4999 0.0 0
M  V30 15 C -0.866 0.0 0.0 0
M  V30 16 C -0.866 -1.9999 0.0 0
M  V30 17 C -1.732 -0.4999 0.0 0
M  V30 18 C -1.732 -1.4999 0.0 0
M  V30 19 C -1.0739 -2.9781 0.0 0
M  V30 20 N -2.4751 -2.1691 0.0 0
M  V30 21 C -2.0684 -3.0826 0.0 0
M  V30 22 C -0.4048 -3.7212 0.0 0
M  V30 23 C -3.4533 -1.9612 0.0 0
M  V30 24 C -2.5684 -3.9487 0.0 0
M  V30 25 C -4.1224 -2.7043 0.0 0
M  V30 26 C -5.1006 -2.4964 0.0 0
M  V30 27 C -3.8134 -3.6554 0.0 0
M  V30 28 C -5.7697 -3.2395 0.0 0
M  V30 29 C -4.4825 -4.3985 0.0 0
M  V30 30 C -5.4607 -4.1906 0.0 0
M  V30 31 C -6.1298 -4.9337 0.0 0
M  V30 32 C -7.108 -4.7258 0.0 0
M  V30 33 C -5.8208 -5.8848 0.0 0
M  V30 34 C -7.417 -3.7748 0.0 0
M  V30 35 C -7.7771 -5.469 0.0 0
M  V30 36 C -6.4899 -6.6279 0.0 0
M  V30 37 N -6.8292 -2.9658 0.0 0
M  V30 38 N -8.368 -3.4658 0.0 0
M  V30 39 C -7.4681 -6.42 0.0 0
M  V30 40 N -7.417 -2.1567 0.0 0
M  V30 41 N -8.368 -2.4658 0.0 0
M  V30 END ATOM
M  V30 BEGIN BOND
M  V30 1 1 1 2
M  V30 2 2 2 3
M  V30 3 1 2 4
M  V30 4 1 3 5
M  V30 5 2 4 6
M  V30 6 2 5 7
M  V30 7 1 5 8
M  V30 8 1 8 9
M  V30 9 1 8 10 CFG=3
M  V30 10 1 9 11
M  V30 11 2 11 12
M  V30 12 1 11 13
M  V30 13 2 13 14
M  V30 14 1 13 15
M  V30 15 1 14 16
M  V30 16 2 15 17
M  V30 17 2 16 18
M  V30 18 1 16 19
M  V30 19 1 18 20
M  V30 20 2 19 21
M  V30 21 1 19 22
M  V30 22 1 20 23
M  V30 23 1 21 24
M  V30 24 1 23 25
M  V30 25 2 25 26
M  V30 26 1 25 27
M  V30 27 1 26 28
M  V30 28 2 27 29
M  V30 29 2 28 30
M  V30 30 1 30 31
M  V30 31 2 31 32
M  V30 32 1 31 33
M  V30 33 1 32 34
M  V30 34 1 32 35
M  V30 35 2 33 36
M  V30 36 2 34 37
M  V30 37 1 34 38
M  V30 38 2 35 39
M  V30 39 1 37 40
M  V30 40 1 38 41
M  V30 41 1 6 7
M  V30 42 1 17 18
M  V30 43 1 20 21
M  V30 44 1 29 30
M  V30 45 1 36 39
M  V30 46 2 40 41
M  V30 END BOND
M  V30 BEGIN COLLECTION
M  V30 MDLV30/STEABS ATOMS=(1 8)
M  V30 END COLLECTION
M  V30 END CTAB
M  END
>  <Molecule ChEMBL ID>
CHEMBL3695905

>  <Smiles>
Cc1c(C)n(Cc2ccc(-c3ccccc3-c3nnn[nH]3)cc2)c2ccc(C(=O)N[C@H](C)c3cccc(Br)c3)cc12

>  <IC50_nM>
1

>  <Assay Description>
Lanthascreen Competitive Binding Assay: The assay was performed according to manufacturer protocol. A mixture of nM GST-PPARG-LBD, 5 nM Tb-GST-antibody, 5 nM Fluormone Pan-PPAR Green, and serial dilutions of the experimental compound, beginning at 10 ׬M downwards, was added to wells of black 384-well low-volume plates (Greiner) to a total volume of 18 ׬L. All dilutions were made in TR-FRET assay buffer C. DMSO at 2% final concentration was used as a no-ligand control. Experiment was performed in triplicate, and incubated for 2 hours in the dark prior to assay read in Perkin Elmer ViewLux ultra HTS microplate reader. FRET signal was measured by excitation at 340 nm and emission at 520 nm for fluorescein and 490 nm for terbium. Fold change over DMSO was calculated using GraphPad Prism Software (La Jolla, Calif.) by calculating 520 nm/490 nm ratio. Graphs were plotted as fold change of FRET signal for compound treatment over DMSO-only control.

$$$$
CHEMBL3699380
Actelion Java MolfileCreator 2.0

  0  0  0  0  0  0              0 V3000
M  V30 BEGIN CTAB
M  V30 COUNTS 40 44 0 0 0
M  V30 BEGIN ATOM
M  V30 1 F 4.3301 -2.9999 0.0 0
M  V30 2 C 4.3301 -1.9999 0.0 0
M  V30 3 C 5.1961 -1.5 0.0 0
M  V30 4 C 3.4641 -1.5 0.0 0
M  V30 5 C 5.1961 -0.5 0.0 0
M  V30 6 C 6.0621 -2.0 0.0 0
M  V30 7 C 3.4641 -0.5 0.0 0
M  V30 8 C 4.3301 0.0 0.0 0
M  V30 9 F 6.5621 -1.1339 0.0 0
M  V30 10 F 6.9282 -2.5 0.0 0
M  V30 11 F 5.5621 -2.866 0.0 0
M  V30 12 C 2.598 0.0 0.0 0 CFG=2
M  V30 13 N 1.732 -0.5 0.0 0
M  V30 14 C 2.598 1.0 0.0 0
M  V30 15 C 0.866 0.0 0.0 0
M  V30 16 O 0.866 1.0 0.0 0
M  V30 17 C 0.0 -0.5 0.0 0
M  V30 18 C 0.0 -1.4999 0.0 0
M  V30 19 C -0.866 0.0 0.0 0
M  V30 20 C -0.866 -1.9999 0.0 0
M  V30 21 C -1.732 -0.4999 0.0 0
M  V30 22 C -1.732 -1.4999 0.0 0
M  V30 23 C -1.0739 -2.9781 0.0 0
M  V30 24 N -2.4751 -2.1691 0.0 0
M  V30 25 C -2.0684 -3.0826 0.0 0
M  V30 26 C -0.4048 -3.7212 0.0 0
M  V30 27 C -3.4533 -1.9612 0.0 0
M  V30 28 C -2.5684 -3.9487 0.0 0
M  V30 29 C -4.1224 -2.7043 0.0 0
M  V30 30 C -5.1006 -2.4964 0.0 0
M  V30 31 C -3.8134 -3.6554 0.0 0
M  V30 32 C -5.7697 -3.2395 0.0 0
M  V30 33 C -4.4825 -4.3985 0.0 0
M  V30 34 C -5.4607 -4.1906 0.0 0
M  V30 35 C -6.1298 -4.9337 0.0 0
M  V30 36 C -7.108 -4.7258 0.0 0
M  V30 37 C -5.8208 -5.8848 0.0 0
M  V30 38 C -7.7771 -5.469 0.0 0
M  V30 39 C -6.4899 -6.6279 0.0 0
M  V30 40 C -7.4681 -6.42 0.0 0
M  V30 END ATOM
M  V30 BEGIN BOND
M  V30 1 1 1 2
M  V30 2 2 2 3
M  V30 3 1 2 4
M  V30 4 1 3 5
M  V30 5 1 3 6
M  V30 6 2 4 7
M  V30 7 2 5 8
M  V30 8 1 6 9
M  V30 9 1 6 10
M  V30 10 1 6 11
M  V30 11 1 7 12
M  V30 12 1 12 13
M  V30 13 1 12 14 CFG=3
M  V30 14 1 13 15
M  V30 15 2 15 16
M  V30 16 1 15 17
M  V30 17 2 17 18
M  V30 18 1 17 19
M  V30 19 1 18 20
M  V30 20 2 19 21
M  V30 21 2 20 22
M  V30 22 1 20 23
M  V30 23 1 22 24
M  V30 24 2 23 25
M  V30 25 1 23 26
M  V30 26 1 24 27
M  V30 27 1 25 28
M  V30 28 1 27 29
M  V30 29 2 29 30
M  V30 30 1 29 31
M  V30 31 1 30 32
M  V30 32 2 31 33
M  V30 33 2 32 34
M  V30 34 1 34 35
M  V30 35 2 35 36
M  V30 36 1 35 37
M  V30 37 1 36 38
M  V30 38 2 37 39
M  V30 39 2 38 40
M  V30 40 1 7 8
M  V30 41 1 21 22
M  V30 42 1 24 25
M  V30 43 1 33 34
M  V30 44 1 39 40
M  V30 END BOND
M  V30 BEGIN COLLECTION
M  V30 MDLV30/STEABS ATOMS=(1 12)
M  V30 END COLLECTION
M  V30 END CTAB
M  END
>  <Molecule ChEMBL ID>
CHEMBL3699380

>  <Smiles>
Cc1c(C)n(Cc2ccc(-c3ccccc3)cc2)c2ccc(C(=O)N[C@H](C)c3ccc(C(F)(F)F)c(F)c3)cc12

>  <IC50_nM>
1

>  <Assay Description>
Lanthascreen Competitive Binding Assay: The assay was performed according to manufacturer protocol. A mixture of nM GST-PPARG-LBD, 5 nM Tb-GST-antibody, 5 nM Fluormone Pan-PPAR Green, and serial dilutions of the experimental compound, beginning at 10 ׬M downwards, was added to wells of black 384-well low-volume plates (Greiner) to a total volume of 18 ׬L. All dilutions were made in TR-FRET assay buffer C. DMSO at 2% final concentration was used as a no-ligand control. Experiment was performed in triplicate, and incubated for 2 hours in the dark prior to assay read in Perkin Elmer ViewLux ultra HTS microplate reader. FRET signal was measured by excitation at 340 nm and emission at 520 nm for fluorescein and 490 nm for terbium. Fold change over DMSO was calculated using GraphPad Prism Software (La Jolla, Calif.) by calculating 520 nm/490 nm ratio. Graphs were plotted as fold change of FRET signal for compound treatment over DMSO-only control.

$$$$
CHEMBL489651
Actelion Java MolfileCreator 2.0

  0  0  0  0  0  0              0 V3000
M  V30 BEGIN CTAB
M  V30 COUNTS 38 41 0 0 0
M  V30 BEGIN ATOM
M  V30 1 F 10.2081 3.2028 0.0 0
M  V30 2 C 10.416 2.2246 0.0 0
M  V30 3 F 11.3942 2.4325 0.0 0
M  V30 4 F 10.6239 1.2465 0.0 0
M  V30 5 O 9.4379 2.0167 0.0 0
M  V30 6 C 9.1289 1.0657 0.0 0
M  V30 7 C 8.1507 0.8577 0.0 0
M  V30 8 C 9.798 0.3225 0.0 0
M  V30 9 C 7.8417 -0.0932 0.0 0
M  V30 10 C 9.489 -0.6284 0.0 0
M  V30 11 N 6.9282 -0.5 0.0 0
M  V30 12 C 8.5108 -0.8364 0.0 0
M  V30 13 C 7.0327 -1.4945 0.0 0
M  V30 14 C 6.0621 0.0 0.0 0
M  V30 15 C 8.0108 -1.7024 0.0 0
M  V30 16 C 6.2895 -2.1636 0.0 0
M  V30 17 C 5.1961 -0.5 0.0 0
M  V30 18 C 8.4176 -2.6159 0.0 0
M  V30 19 C 4.3301 0.0 0.0 0
M  V30 20 C 5.1961 -1.4999 0.0 0
M  V30 21 O 7.8298 -3.4249 0.0 0
M  V30 22 C 9.4121 -2.7205 0.0 0
M  V30 23 C 3.4641 -0.5 0.0 0
M  V30 24 C 4.3301 -1.9999 0.0 0
M  V30 25 C 9.8188 -3.634 0.0 0
M  V30 26 C 9.9999 -1.9114 0.0 0
M  V30 27 O 2.598 0.0 0.0 0
M  V30 28 C 3.4641 -1.4999 0.0 0
M  V30 29 C 10.8133 -3.7385 0.0 0
M  V30 30 C 10.9944 -2.016 0.0 0
M  V30 31 C 1.732 -0.5 0.0 0 CFG=2
M  V30 32 C 11.4011 -2.9295 0.0 0
M  V30 33 C 0.866 0.0 0.0 0
M  V30 34 C 1.732 -1.5 0.0 0
M  V30 35 O 12.3957 -3.034 0.0 0
M  V30 36 O 0.866 1.0 0.0 0
M  V30 37 O 0.0 -0.5 0.0 0
M  V30 38 C 12.9834 -2.225 0.0 0
M  V30 END ATOM
M  V30 BEGIN BOND
M  V30 1 1 1 2
M  V30 2 1 2 3
M  V30 3 1 2 4
M  V30 4 1 2 5
M  V30 5 1 5 6
M  V30 6 2 6 7
M  V30 7 1 6 8
M  V30 8 1 7 9
M  V30 9 2 8 10
M  V30 10 1 9 11
M  V30 11 2 9 12
M  V30 12 1 11 13
M  V30 13 1 11 14
M  V30 14 1 12 15
M  V30 15 1 13 16
M  V30 16 1 14 17
M  V30 17 1 15 18
M  V30 18 2 17 19
M  V30 19 1 17 20
M  V30 20 2 18 21
M  V30 21 1 18 22
M  V30 22 1 19 23
M  V30 23 2 20 24
M  V30 24 2 22 25
M  V30 25 1 22 26
M  V30 26 1 23 27
M  V30 27 2 23 28
M  V30 28 1 25 29
M  V30 29 2 26 30
M  V30 30 1 27 31
M  V30 31 2 29 32
M  V30 32 1 31 33
M  V30 33 1 31 34 CFG=1
M  V30 34 1 32 35
M  V30 35 2 33 36
M  V30 36 1 33 37
M  V30 37 1 35 38
M  V30 38 1 10 12
M  V30 39 2 13 15
M  V30 40 1 24 28
M  V30 41 1 30 32
M  V30 END BOND
M  V30 BEGIN COLLECTION
M  V30 MDLV30/STEABS ATOMS=(1 31)
M  V30 END COLLECTION
M  V30 END CTAB
M  END
>  <Molecule ChEMBL ID>
CHEMBL489651

>  <Smiles>
COc1ccc(C(=O)c2c(C)n(Cc3cccc(O[C@@H](C)C(=O)O)c3)c3cc(OC(F)(F)F)ccc23)cc1

>  <IC50_nM>
1

>  <Assay Description>
Displacement of [3H2]nTZD3 from human recombinant GST-fused PPARgamma expressed in Escherichia coli by scintillation proximity assay

$$$$
CHEMBL522772
Actelion Java MolfileCreator 2.0

  0  0  0  0  0  0              0 V3000
M  V30 BEGIN CTAB
M  V30 COUNTS 37 40 0 0 0
M  V30 BEGIN ATOM
M  V30 1 Cl 6.4951 1.4999 0.0 0
M  V30 2 C 6.4951 0.0 0.0 0
M  V30 3 C 5.1961 -0.75 0.0 0
M  V30 4 C 7.7942 -0.75 0.0 0
M  V30 5 O 3.8971 0.0 0.0 0
M  V30 6 C 5.1961 -2.25 0.0 0
M  V30 7 C 7.7942 -2.25 0.0 0
M  V30 8 C 2.598 -0.75 0.0 0 CFG=2
M  V30 9 C 6.4951 -3.0 0.0 0
M  V30 10 C 1.299 0.0 0.0 0
M  V30 11 C 2.598 -2.25 0.0 0
M  V30 12 C 6.4951 -4.5 0.0 0
M  V30 13 O 1.299 1.5 0.0 0
M  V30 14 O 0.0 -0.75 0.0 0
M  V30 15 N 7.7942 -5.25 0.0 0
M  V30 16 C 7.951 -6.7417 0.0 0
M  V30 17 C 9.1645 -4.6398 0.0 0
M  V30 18 C 9.4182 -7.0536 0.0 0
M  V30 19 C 6.9473 -7.8565 0.0 0
M  V30 20 C 10.1682 -5.7546 0.0 0
M  V30 21 C 9.4764 -3.1726 0.0 0
M  V30 22 C 9.8817 -8.4802 0.0 0
M  V30 23 C 7.4108 -9.283 0.0 0
M  V30 24 O 11.66 -5.5978 0.0 0
M  V30 25 C 8.878 -9.5949 0.0 0
M  V30 26 O 6.4071 -10.3978 0.0 0
M  V30 27 C 12.2701 -4.2275 0.0 0
M  V30 28 C 6.8706 -11.8243 0.0 0
M  V30 29 C 13.7619 -4.0707 0.0 0
M  V30 30 C 11.3884 -3.0139 0.0 0
M  V30 31 F 8.2972 -11.3608 0.0 0
M  V30 32 F 7.3342 -13.2509 0.0 0
M  V30 33 F 5.444 -12.2879 0.0 0
M  V30 34 C 14.372 -2.7003 0.0 0
M  V30 35 C 11.9985 -1.6436 0.0 0
M  V30 36 C 13.4903 -1.4868 0.0 0
M  V30 37 Cl 14.1004 -0.1165 0.0 0
M  V30 END ATOM
M  V30 BEGIN BOND
M  V30 1 1 1 2
M  V30 2 2 2 3
M  V30 3 1 2 4
M  V30 4 1 3 5
M  V30 5 1 3 6
M  V30 6 2 4 7
M  V30 7 1 5 8
M  V30 8 2 6 9
M  V30 9 1 8 10
M  V30 10 1 8 11 CFG=1
M  V30 11 1 9 12
M  V30 12 2 10 13
M  V30 13 1 10 14
M  V30 14 1 12 15
M  V30 15 1 15 16
M  V30 16 1 15 17
M  V30 17 2 16 18
M  V30 18 1 16 19
M  V30 19 2 17 20
M  V30 20 1 17 21
M  V30 21 1 18 22
M  V30 22 2 19 23
M  V30 23 1 20 24
M  V30 24 2 22 25
M  V30 25 1 23 26
M  V30 26 1 24 27
M  V30 27 1 26 28
M  V30 28 2 27 29
M  V30 29 1 27 30
M  V30 30 1 28 31
M  V30 31 1 28 32
M  V30 32 1 28 33
M  V30 33 1 29 34
M  V30 34 2 30 35
M  V30 35 2 34 36
M  V30 36 1 36 37
M  V30 37 1 7 9
M  V30 38 1 18 20
M  V30 39 1 23 25
M  V30 40 1 35 36
M  V30 END BOND
M  V30 BEGIN COLLECTION
M  V30 MDLV30/STEABS ATOMS=(1 8)
M  V30 END COLLECTION
M  V30 END CTAB
M  END
>  <Molecule ChEMBL ID>
CHEMBL522772

>  <Smiles>
Cc1c(Oc2ccc(Cl)cc2)c2ccc(OC(F)(F)F)cc2n1Cc1ccc(Cl)c(O[C@@H](C)C(=O)O)c1

>  <IC50_nM>
1

>  <Assay Description>
Displacement of [3H2]nTZD3 from human recombinant GST-fused PPARgamma expressed in Escherichia coli by scintillation proximity assay

$$$$
CHEMBL218258
Actelion Java MolfileCreator 2.0

  0  0  0  0  0  0              0 V3000
M  V30 BEGIN CTAB
M  V30 COUNTS 44 48 0 0 0
M  V30 BEGIN ATOM
M  V30 1 S 2.598 2.25 0.0 0
M  V30 2 O 4.098 2.25 0.0 0
M  V30 3 O 3.348 0.9509 0.0 0
M  V30 4 N 1.299 1.5 0.0 0
M  V30 5 C 2.598 3.75 0.0 0
M  V30 6 C 1.299 0.0 0.0 0
M  V30 7 C 1.299 4.5 0.0 0
M  V30 8 C 3.8971 4.5 0.0 0
M  V30 9 O 2.598 -0.75 0.0 0
M  V30 10 C 0.0 -0.75 0.0 0
M  V30 11 C 0.0 3.75 0.0 0
M  V30 12 C 1.299 6.0 0.0 0
M  V30 13 C 3.8971 6.0 0.0 0
M  V30 14 N -1.3703 -0.1398 0.0 0
M  V30 15 C -0.1567 -2.2417 0.0 0
M  V30 16 O 0.0 2.25 0.0 0
M  V30 17 O -1.299 4.5 0.0 0
M  V30 18 C 2.598 6.75 0.0 0
M  V30 19 C -2.374 -1.2546 0.0 0
M  V30 20 C -1.6821 1.3273 0.0 0
M  V30 21 C 0.9579 -3.2454 0.0 0
M  V30 22 C -1.624 -2.5536 0.0 0
M  V30 23 C -1.299 6.0 0.0 0
M  V30 24 C -3.874 -1.2546 0.0 0
M  V30 25 C -3.1087 1.7908 0.0 0
M  V30 26 C 0.646 -4.7127 0.0 0
M  V30 27 C 2.3845 -2.7819 0.0 0
M  V30 28 C -2.374 -3.8526 0.0 0
M  V30 29 C -4.624 -2.5536 0.0 0
M  V30 30 C -4.2234 0.7871 0.0 0
M  V30 31 C -3.4206 3.258 0.0 0
M  V30 32 C 1.7607 -5.7164 0.0 0
M  V30 33 C 3.4992 -3.7856 0.0 0
M  V30 34 C -3.874 -3.8526 0.0 0
M  V30 35 C -5.65 1.2506 0.0 0
M  V30 36 C -4.8472 3.7216 0.0 0
M  V30 37 C 3.1873 -5.2528 0.0 0
M  V30 38 C -5.9619 2.7179 0.0 0
M  V30 39 C -6.7647 0.2469 0.0 0
M  V30 40 O 4.302 -6.2565 0.0 0
M  V30 41 F -7.7684 1.3617 0.0 0
M  V30 42 F -7.8795 -0.7567 0.0 0
M  V30 43 F -5.761 -0.8677 0.0 0
M  V30 44 C 5.7286 -5.793 0.0 0
M  V30 END ATOM
M  V30 BEGIN BOND
M  V30 1 2 1 2
M  V30 2 2 1 3
M  V30 3 1 1 4
M  V30 4 1 1 5
M  V30 5 1 4 6
M  V30 6 2 5 7
M  V30 7 1 5 8
M  V30 8 2 6 9
M  V30 9 1 6 10
M  V30 10 1 7 11
M  V30 11 1 7 12
M  V30 12 2 8 13
M  V30 13 1 10 14
M  V30 14 2 10 15
M  V30 15 2 11 16
M  V30 16 1 11 17
M  V30 17 2 12 18
M  V30 18 1 14 19
M  V30 19 1 14 20
M  V30 20 1 15 21
M  V30 21 1 15 22
M  V30 22 1 17 23
M  V30 23 1 19 24
M  V30 24 1 20 25
M  V30 25 2 21 26
M  V30 26 1 21 27
M  V30 27 1 22 28
M  V30 28 2 24 29
M  V30 29 2 25 30
M  V30 30 1 25 31
M  V30 31 1 26 32
M  V30 32 2 27 33
M  V30 33 2 28 34
M  V30 34 1 30 35
M  V30 35 2 31 36
M  V30 36 2 32 37
M  V30 37 2 35 38
M  V30 38 1 35 39
M  V30 39 1 37 40
M  V30 40 1 39 41
M  V30 41 1 39 42
M  V30 42 1 39 43
M  V30 43 1 40 44
M  V30 44 1 13 18
M  V30 45 2 19 22
M  V30 46 1 29 34
M  V30 47 1 33 37
M  V30 48 1 36 38
M  V30 END BOND
M  V30 END CTAB
M  END
>  <Molecule ChEMBL ID>
CHEMBL218258

>  <Smiles>
COC(=O)c1ccccc1S(=O)(=O)NC(=O)c1c(-c2ccc(OC)cc2)c2ccccc2n1Cc1cccc(C(F)(F)F)c1

>  <IC50_nM>
1

>  <Assay Description>
Displacement of Fluormone from PPAR gamma

$$$$
CHEMBL556073
Actelion Java MolfileCreator 2.0

  0  0  0  0  0  0              0 V3000
M  V30 BEGIN CTAB
M  V30 COUNTS 36 39 0 0 0
M  V30 BEGIN ATOM
M  V30 1 Cl 6.0664 -5.852 0.0 0
M  V30 2 C 6.6542 -5.043 0.0 0
M  V30 3 C 7.6487 -5.1475 0.0 0
M  V30 4 C 6.2475 -4.1294 0.0 0
M  V30 5 C 8.2365 -4.3385 0.0 0
M  V30 6 C 6.8353 -3.3204 0.0 0
M  V30 7 C 7.8298 -3.4249 0.0 0
M  V30 8 C 8.4176 -2.6159 0.0 0
M  V30 9 O 9.4121 -2.7205 0.0 0
M  V30 10 N 8.0108 -1.7024 0.0 0
M  V30 11 C 8.5108 -0.8364 0.0 0
M  V30 12 C 7.0327 -1.4945 0.0 0
M  V30 13 C 7.8417 -0.0932 0.0 0
M  V30 14 C 9.489 -0.6284 0.0 0
M  V30 15 C 6.9282 -0.5 0.0 0
M  V30 16 C 6.2895 -2.1636 0.0 0
M  V30 17 C 8.1507 0.8577 0.0 0
M  V30 18 C 9.798 0.3225 0.0 0
M  V30 19 C 6.0621 0.0 0.0 0
M  V30 20 C 9.1289 1.0657 0.0 0
M  V30 21 C 5.1961 -0.5 0.0 0
M  V30 22 O 9.4379 2.0167 0.0 0
M  V30 23 C 4.3301 0.0 0.0 0
M  V30 24 C 5.1961 -1.4999 0.0 0
M  V30 25 C 8.7687 2.7599 0.0 0
M  V30 26 C 3.4641 -0.5 0.0 0
M  V30 27 C 4.3301 -1.9999 0.0 0
M  V30 28 F 8.0256 2.0907 0.0 0
M  V30 29 F 8.0996 3.503 0.0 0
M  V30 30 F 9.5119 3.429 0.0 0
M  V30 31 O 2.598 0.0 0.0 0
M  V30 32 C 3.4641 -1.4999 0.0 0
M  V30 33 C 1.732 -0.5 0.0 0
M  V30 34 C 0.866 0.0 0.0 0
M  V30 35 O 0.866 1.0 0.0 0
M  V30 36 O 0.0 -0.5 0.0 0
M  V30 END ATOM
M  V30 BEGIN BOND
M  V30 1 1 1 2
M  V30 2 2 2 3
M  V30 3 1 2 4
M  V30 4 1 3 5
M  V30 5 2 4 6
M  V30 6 2 5 7
M  V30 7 1 7 8
M  V30 8 2 8 9
M  V30 9 1 8 10
M  V30 10 1 10 11
M  V30 11 1 10 12
M  V30 12 2 11 13
M  V30 13 1 11 14
M  V30 14 2 12 15
M  V30 15 1 12 16
M  V30 16 1 13 17
M  V30 17 2 14 18
M  V30 18 1 15 19
M  V30 19 2 17 20
M  V30 20 1 19 21
M  V30 21 1 20 22
M  V30 22 2 21 23
M  V30 23 1 21 24
M  V30 24 1 22 25
M  V30 25 1 23 26
M  V30 26 2 24 27
M  V30 27 1 25 28
M  V30 28 1 25 29
M  V30 29 1 25 30
M  V30 30 1 26 31
M  V30 31 2 26 32
M  V30 32 1 31 33
M  V30 33 1 33 34
M  V30 34 2 34 35
M  V30 35 1 34 36
M  V30 36 1 6 7
M  V30 37 1 13 15
M  V30 38 1 18 20
M  V30 39 1 27 32
M  V30 END BOND
M  V30 END CTAB
M  END
>  <Molecule ChEMBL ID>
CHEMBL556073

>  <Smiles>
Cc1c(Cc2cccc(OCC(=O)O)c2)c2cc(OC(F)(F)F)ccc2n1C(=O)c1ccc(Cl)cc1

>  <IC50_nM>
1

>  <Assay Description>
Inhibition of human PPARgamma receptor by scintillation proximity assay

$$$$
CHEMBL3695882
Actelion Java MolfileCreator 2.0

  0  0  0  0  0  0              0 V3000
M  V30 BEGIN CTAB
M  V30 COUNTS 36 40 0 0 0
M  V30 BEGIN ATOM
M  V30 1 Cl 4.3301 0.9999 0.0 0
M  V30 2 C 4.3301 0.0 0.0 0
M  V30 3 C 3.4641 -0.5 0.0 0
M  V30 4 C 5.1961 -0.5 0.0 0
M  V30 5 C 3.4641 -1.5 0.0 0
M  V30 6 C 2.598 0.0 0.0 0 CFG=1
M  V30 7 C 5.1961 -1.5 0.0 0
M  V30 8 C 4.3301 -2.0 0.0 0
M  V30 9 N 1.732 -0.5 0.0 0
M  V30 10 C 2.598 1.0 0.0 0
M  V30 11 C 0.866 0.0 0.0 0
M  V30 12 O 0.866 1.0 0.0 0
M  V30 13 C 0.0 -0.5 0.0 0
M  V30 14 C 0.0 -1.4999 0.0 0
M  V30 15 C -0.866 0.0 0.0 0
M  V30 16 C -0.866 -1.9999 0.0 0
M  V30 17 C -1.732 -0.4999 0.0 0
M  V30 18 C -1.732 -1.4999 0.0 0
M  V30 19 C -1.0739 -2.9781 0.0 0
M  V30 20 N -2.4751 -2.1691 0.0 0
M  V30 21 C -2.0684 -3.0826 0.0 0
M  V30 22 C -0.4048 -3.7212 0.0 0
M  V30 23 C -3.4533 -1.9612 0.0 0
M  V30 24 C -2.5684 -3.9487 0.0 0
M  V30 25 C -4.1224 -2.7043 0.0 0
M  V30 26 C -5.1006 -2.4964 0.0 0
M  V30 27 C -3.8134 -3.6554 0.0 0
M  V30 28 C -5.7697 -3.2395 0.0 0
M  V30 29 C -4.4825 -4.3985 0.0 0
M  V30 30 C -5.4607 -4.1906 0.0 0
M  V30 31 C -6.1298 -4.9337 0.0 0
M  V30 32 C -7.108 -4.7258 0.0 0
M  V30 33 C -5.8208 -5.8848 0.0 0
M  V30 34 C -7.7771 -5.469 0.0 0
M  V30 35 C -6.4899 -6.6279 0.0 0
M  V30 36 C -7.4681 -6.42 0.0 0
M  V30 END ATOM
M  V30 BEGIN BOND
M  V30 1 1 1 2
M  V30 2 2 2 3
M  V30 3 1 2 4
M  V30 4 1 3 5
M  V30 5 1 3 6
M  V30 6 2 4 7
M  V30 7 2 5 8
M  V30 8 1 6 9
M  V30 9 1 6 10 CFG=1
M  V30 10 1 9 11
M  V30 11 2 11 12
M  V30 12 1 11 13
M  V30 13 2 13 14
M  V30 14 1 13 15
M  V30 15 1 14 16
M  V30 16 2 15 17
M  V30 17 2 16 18
M  V30 18 1 16 19
M  V30 19 1 18 20
M  V30 20 2 19 21
M  V30 21 1 19 22
M  V30 22 1 20 23
M  V30 23 1 21 24
M  V30 24 1 23 25
M  V30 25 2 25 26
M  V30 26 1 25 27
M  V30 27 1 26 28
M  V30 28 2 27 29
M  V30 29 2 28 30
M  V30 30 1 30 31
M  V30 31 2 31 32
M  V30 32 1 31 33
M  V30 33 1 32 34
M  V30 34 2 33 35
M  V30 35 2 34 36
M  V30 36 1 7 8
M  V30 37 1 17 18
M  V30 38 1 20 21
M  V30 39 1 29 30
M  V30 40 1 35 36
M  V30 END BOND
M  V30 BEGIN COLLECTION
M  V30 MDLV30/STEABS ATOMS=(1 6)
M  V30 END COLLECTION
M  V30 END CTAB
M  END
>  <Molecule ChEMBL ID>
CHEMBL3695882

>  <Smiles>
Cc1c(C)n(Cc2ccc(-c3ccccc3)cc2)c2ccc(C(=O)N[C@@H](C)c3ccccc3Cl)cc12

>  <IC50_nM>
1

>  <Assay Description>
Lanthascreen Competitive Binding Assay: The assay was performed according to manufacturer protocol. A mixture of nM GST-PPARG-LBD, 5 nM Tb-GST-antibody, 5 nM Fluormone Pan-PPAR Green, and serial dilutions of the experimental compound, beginning at 10 ׬M downwards, was added to wells of black 384-well low-volume plates (Greiner) to a total volume of 18 ׬L. All dilutions were made in TR-FRET assay buffer C. DMSO at 2% final concentration was used as a no-ligand control. Experiment was performed in triplicate, and incubated for 2 hours in the dark prior to assay read in Perkin Elmer ViewLux ultra HTS microplate reader. FRET signal was measured by excitation at 340 nm and emission at 520 nm for fluorescein and 490 nm for terbium. Fold change over DMSO was calculated using GraphPad Prism Software (La Jolla, Calif.) by calculating 520 nm/490 nm ratio. Graphs were plotted as fold change of FRET signal for compound treatment over DMSO-only control.

$$$$
CHEMBL474295
Actelion Java MolfileCreator 2.0

  0  0  0  0  0  0              0 V3000
M  V30 BEGIN CTAB
M  V30 COUNTS 36 39 0 0 0
M  V30 BEGIN ATOM
M  V30 1 O 6.9282 -4.5 0.0 0
M  V30 2 C 6.9282 -3.5 0.0 0
M  V30 3 O 7.7942 -3.0 0.0 0
M  V30 4 C 6.0621 -3.0 0.0 0 CFG=1
M  V30 5 N 5.1961 -3.5 0.0 0
M  V30 6 C 6.0621 -1.9999 0.0 0
M  V30 7 C 5.1961 -4.4999 0.0 0
M  V30 8 C 5.1961 -1.4999 0.0 0
M  V30 9 C 4.3301 -4.9999 0.0 0
M  V30 10 C 6.0621 -5.0 0.0 0
M  V30 11 C 5.1961 -0.5 0.0 0
M  V30 12 C 4.3301 -1.9999 0.0 0
M  V30 13 C 3.4641 -4.4999 0.0 0
M  V30 14 C 4.3301 -5.9999 0.0 0
M  V30 15 C 6.0621 -5.9999 0.0 0
M  V30 16 C 4.3301 0.0 0.0 0
M  V30 17 C 3.4641 -1.5 0.0 0
M  V30 18 O 3.4641 -3.4999 0.0 0
M  V30 19 C 2.598 -4.9999 0.0 0
M  V30 20 C 5.1961 -6.5 0.0 0
M  V30 21 C 3.4641 -0.5 0.0 0
M  V30 22 O 2.598 0.0 0.0 0
M  V30 23 C 1.732 -0.5 0.0 0
M  V30 24 C 0.866 0.0 0.0 0
M  V30 25 C 0.0 -0.5 0.0 0
M  V30 26 N -0.9135 -0.0932 0.0 0
M  V30 27 C -0.1045 -1.4945 0.0 0
M  V30 28 C -1.5826 -0.8364 0.0 0
M  V30 29 O -1.0826 -1.7024 0.0 0
M  V30 30 C 0.6386 -2.1636 0.0 0
M  V30 31 C -2.5771 -0.7318 0.0 0
M  V30 32 C -2.9839 0.1816 0.0 0
M  V30 33 C -3.1649 -1.5408 0.0 0
M  V30 34 C -3.9784 0.2861 0.0 0
M  V30 35 C -4.1595 -1.4363 0.0 0
M  V30 36 C -4.5662 -0.5228 0.0 0
M  V30 END ATOM
M  V30 BEGIN BOND
M  V30 1 2 1 2
M  V30 2 1 2 3
M  V30 3 1 2 4
M  V30 4 1 4 5 CFG=1
M  V30 5 1 4 6
M  V30 6 1 5 7
M  V30 7 1 6 8
M  V30 8 2 7 9
M  V30 9 1 7 10
M  V30 10 2 8 11
M  V30 11 1 8 12
M  V30 12 1 9 13
M  V30 13 1 9 14
M  V30 14 2 10 15
M  V30 15 1 11 16
M  V30 16 2 12 17
M  V30 17 2 13 18
M  V30 18 1 13 19
M  V30 19 2 14 20
M  V30 20 2 16 21
M  V30 21 1 21 22
M  V30 22 1 22 23
M  V30 23 1 23 24
M  V30 24 1 24 25
M  V30 25 1 25 26
M  V30 26 2 25 27
M  V30 27 2 26 28
M  V30 28 1 27 29
M  V30 29 1 27 30
M  V30 30 1 28 31
M  V30 31 2 31 32
M  V30 32 1 31 33
M  V30 33 1 32 34
M  V30 34 2 33 35
M  V30 35 2 34 36
M  V30 36 1 15 20
M  V30 37 1 17 21
M  V30 38 1 28 29
M  V30 39 1 35 36
M  V30 END BOND
M  V30 BEGIN COLLECTION
M  V30 MDLV30/STEABS ATOMS=(1 4)
M  V30 END COLLECTION
M  V30 END CTAB
M  END
>  <Molecule ChEMBL ID>
CHEMBL474295

>  <Smiles>
CC(=O)c1ccccc1N[C@@H](Cc1ccc(OCCc2nc(-c3ccccc3)oc2C)cc1)C(=O)O

>  <IC50_nM>
1

>  <Assay Description>
Displacement of radio labeled 2(S)-(2-benzoyl-phenylamino)-3-{4-[1,1-ditritio-2-(5-methyl-2-phenyl-oxazol-4-yl)-ethoxy]-phenyl}-propionic acid from GST-fused human PPARgamma expressed in Escherichia coli BL21 cells by scintillation proximity assay

$$$$
CHEMBL459466
Actelion Java MolfileCreator 2.0

  0  0  0  0  0  0              0 V3000
M  V30 BEGIN CTAB
M  V30 COUNTS 36 39 0 0 0
M  V30 BEGIN ATOM
M  V30 1 Cl 4.3301 0.9999 0.0 0
M  V30 2 C 4.3301 0.0 0.0 0
M  V30 3 C 3.4641 -0.5 0.0 0
M  V30 4 C 5.1961 -0.5 0.0 0
M  V30 5 O 2.598 0.0 0.0 0
M  V30 6 C 3.4641 -1.5 0.0 0
M  V30 7 C 5.1961 -1.5 0.0 0
M  V30 8 C 1.732 -0.5 0.0 0 CFG=2
M  V30 9 C 4.3301 -2.0 0.0 0
M  V30 10 C 0.866 0.0 0.0 0
M  V30 11 C 1.732 -1.5 0.0 0
M  V30 12 C 4.3301 -3.0 0.0 0
M  V30 13 O 0.866 1.0 0.0 0
M  V30 14 O 0.0 -0.5 0.0 0
M  V30 15 N 5.1961 -3.5 0.0 0
M  V30 16 C 5.3006 -4.4945 0.0 0
M  V30 17 C 6.1096 -3.0932 0.0 0
M  V30 18 N 4.6315 -5.2376 0.0 0
M  V30 19 C 6.2788 -4.7024 0.0 0
M  V30 20 C 6.7788 -3.8364 0.0 0
M  V30 21 C 6.3176 -2.1151 0.0 0
M  V30 22 C 4.9405 -6.1887 0.0 0
M  V30 23 C 6.5878 -5.6534 0.0 0
M  V30 24 C 7.7733 -3.7318 0.0 0
M  V30 25 O 4.2714 -6.9318 0.0 0
M  V30 26 C 5.9187 -6.3966 0.0 0
M  V30 27 O 8.3611 -4.5408 0.0 0
M  V30 28 C 8.18 -2.8183 0.0 0
M  V30 29 C 4.5804 -7.8829 0.0 0
M  V30 30 C 9.1746 -2.7138 0.0 0
M  V30 31 C 7.5923 -2.0093 0.0 0
M  V30 32 C 9.5813 -1.8002 0.0 0
M  V30 33 C 7.999 -1.0957 0.0 0
M  V30 34 C 8.9935 -0.9912 0.0 0
M  V30 35 O 9.4002 -0.0776 0.0 0
M  V30 36 C 8.8125 0.7313 0.0 0
M  V30 END ATOM
M  V30 BEGIN BOND
M  V30 1 1 1 2
M  V30 2 2 2 3
M  V30 3 1 2 4
M  V30 4 1 3 5
M  V30 5 1 3 6
M  V30 6 2 4 7
M  V30 7 1 5 8
M  V30 8 2 6 9
M  V30 9 1 8 10
M  V30 10 1 8 11 CFG=1
M  V30 11 1 9 12
M  V30 12 2 10 13
M  V30 13 1 10 14
M  V30 14 1 12 15
M  V30 15 1 15 16
M  V30 16 1 15 17
M  V30 17 2 16 18
M  V30 18 1 16 19
M  V30 19 2 17 20
M  V30 20 1 17 21
M  V30 21 1 18 22
M  V30 22 2 19 23
M  V30 23 1 20 24
M  V30 24 1 22 25
M  V30 25 2 22 26
M  V30 26 2 24 27
M  V30 27 1 24 28
M  V30 28 1 25 29
M  V30 29 2 28 30
M  V30 30 1 28 31
M  V30 31 1 30 32
M  V30 32 2 31 33
M  V30 33 2 32 34
M  V30 34 1 34 35
M  V30 35 1 35 36
M  V30 36 1 7 9
M  V30 37 1 19 20
M  V30 38 1 23 26
M  V30 39 1 33 34
M  V30 END BOND
M  V30 BEGIN COLLECTION
M  V30 MDLV30/STEABS ATOMS=(1 8)
M  V30 END COLLECTION
M  V30 END CTAB
M  END
>  <Molecule ChEMBL ID>
CHEMBL459466

>  <Smiles>
COc1ccc(C(=O)c2c(C)n(Cc3ccc(Cl)c(O[C@@H](C)C(=O)O)c3)c3nc(OC)ccc23)cc1

>  <IC50_nM>
1

>  <Assay Description>
Displacement of [3H]2AD-5075 from GST-tagged human PPARgamma receptor expressed in Escherichia coli BL21

$$$$
CHEMBL452051
Actelion Java MolfileCreator 2.0

  0  0  0  0  0  0              0 V3000
M  V30 BEGIN CTAB
M  V30 COUNTS 37 40 0 0 0
M  V30 BEGIN ATOM
M  V30 1 Cl 6.0664 -5.852 0.0 0
M  V30 2 C 6.6542 -5.043 0.0 0
M  V30 3 C 7.6487 -5.1475 0.0 0
M  V30 4 C 6.2475 -4.1294 0.0 0
M  V30 5 C 8.2365 -4.3385 0.0 0
M  V30 6 C 6.8353 -3.3204 0.0 0
M  V30 7 C 7.8298 -3.4249 0.0 0
M  V30 8 C 8.4176 -2.6159 0.0 0
M  V30 9 O 9.4121 -2.7205 0.0 0
M  V30 10 C 8.0108 -1.7024 0.0 0
M  V30 11 C 8.5108 -0.8364 0.0 0
M  V30 12 C 7.0327 -1.4945 0.0 0
M  V30 13 C 7.8417 -0.0932 0.0 0
M  V30 14 C 9.489 -0.6284 0.0 0
M  V30 15 N 6.9282 -0.5 0.0 0
M  V30 16 C 6.2895 -2.1636 0.0 0
M  V30 17 C 8.1507 0.8577 0.0 0
M  V30 18 C 9.798 0.3225 0.0 0
M  V30 19 C 6.0621 0.0 0.0 0
M  V30 20 C 9.1289 1.0657 0.0 0
M  V30 21 C 5.1961 -0.5 0.0 0
M  V30 22 O 9.4379 2.0167 0.0 0
M  V30 23 C 4.3301 0.0 0.0 0
M  V30 24 C 5.1961 -1.4999 0.0 0
M  V30 25 C 8.7687 2.7599 0.0 0
M  V30 26 C 3.4641 -0.5 0.0 0
M  V30 27 C 4.3301 -1.9999 0.0 0
M  V30 28 F 8.0256 2.0907 0.0 0
M  V30 29 F 8.0996 3.503 0.0 0
M  V30 30 F 9.5119 3.429 0.0 0
M  V30 31 O 2.598 0.0 0.0 0
M  V30 32 C 3.4641 -1.4999 0.0 0
M  V30 33 C 1.732 -0.5 0.0 0 CFG=2
M  V30 34 C 0.866 0.0 0.0 0
M  V30 35 C 1.732 -1.5 0.0 0
M  V30 36 O 0.866 1.0 0.0 0
M  V30 37 O 0.0 -0.5 0.0 0
M  V30 END ATOM
M  V30 BEGIN BOND
M  V30 1 1 1 2
M  V30 2 2 2 3
M  V30 3 1 2 4
M  V30 4 1 3 5
M  V30 5 2 4 6
M  V30 6 2 5 7
M  V30 7 1 7 8
M  V30 8 2 8 9
M  V30 9 1 8 10
M  V30 10 1 10 11
M  V30 11 2 10 12
M  V30 12 2 11 13
M  V30 13 1 11 14
M  V30 14 1 12 15
M  V30 15 1 12 16
M  V30 16 1 13 17
M  V30 17 2 14 18
M  V30 18 1 15 19
M  V30 19 2 17 20
M  V30 20 1 19 21
M  V30 21 1 20 22
M  V30 22 2 21 23
M  V30 23 1 21 24
M  V30 24 1 22 25
M  V30 25 1 23 26
M  V30 26 2 24 27
M  V30 27 1 25 28
M  V30 28 1 25 29
M  V30 29 1 25 30
M  V30 30 1 26 31
M  V30 31 2 26 32
M  V30 32 1 31 33
M  V30 33 1 33 34
M  V30 34 1 33 35 CFG=1
M  V30 35 2 34 36
M  V30 36 1 34 37
M  V30 37 1 6 7
M  V30 38 1 13 15
M  V30 39 1 18 20
M  V30 40 1 27 32
M  V30 END BOND
M  V30 BEGIN COLLECTION
M  V30 MDLV30/STEABS ATOMS=(1 33)
M  V30 END COLLECTION
M  V30 END CTAB
M  END
>  <Molecule ChEMBL ID>
CHEMBL452051

>  <Smiles>
Cc1c(C(=O)c2ccc(Cl)cc2)c2ccc(OC(F)(F)F)cc2n1Cc1cccc(O[C@@H](C)C(=O)O)c1

>  <IC50_nM>
1

>  <Assay Description>
Inhibition of human PPARgamma receptor by scintillation proximity assay

$$$$
CHEMBL602469
Actelion Java MolfileCreator 2.0

  0  0  0  0  0  0              0 V3000
M  V30 BEGIN CTAB
M  V30 COUNTS 37 41 0 0 0
M  V30 BEGIN ATOM
M  V30 1 O 11.8592 -3.5669 0.0 0
M  V30 2 C 10.8811 -3.7748 0.0 0
M  V30 3 O 10.212 -3.0316 0.0 0
M  V30 4 C 10.5721 -4.7258 0.0 0
M  V30 5 C 9.5939 -4.9337 0.0 0
M  V30 6 C 11.2412 -5.469 0.0 0
M  V30 7 C 8.9248 -4.1906 0.0 0
M  V30 8 C 9.2849 -5.8848 0.0 0
M  V30 9 C 10.9322 -6.42 0.0 0
M  V30 10 C 9.2338 -3.2395 0.0 0
M  V30 11 C 7.9466 -4.3985 0.0 0
M  V30 12 C 9.954 -6.6279 0.0 0
M  V30 13 C 8.5647 -2.4964 0.0 0
M  V30 14 C 7.2775 -3.6554 0.0 0
M  V30 15 C 7.5865 -2.7043 0.0 0
M  V30 16 C 6.9174 -1.9612 0.0 0
M  V30 17 N 5.9392 -2.1691 0.0 0
M  V30 18 C 5.1961 -1.4999 0.0 0
M  V30 19 C 5.5325 -3.0826 0.0 0
M  V30 20 C 4.3301 -1.9999 0.0 0
M  V30 21 C 5.1961 -0.4999 0.0 0
M  V30 22 C 4.538 -2.9781 0.0 0
M  V30 23 C 6.0325 -3.9487 0.0 0
M  V30 24 C 3.4641 -1.5 0.0 0
M  V30 25 C 4.3301 0.0 0.0 0
M  V30 26 C 3.8689 -3.7212 0.0 0
M  V30 27 C 3.4641 -0.5 0.0 0
M  V30 28 C 2.598 0.0 0.0 0
M  V30 29 O 2.598 1.0 0.0 0
M  V30 30 N 1.732 -0.5 0.0 0
M  V30 31 C 0.866 0.0 0.0 0
M  V30 32 C 0.0 -0.5 0.0 0
M  V30 33 C -0.866 0.0 0.0 0
M  V30 34 C 0.0 -1.4999 0.0 0
M  V30 35 C -1.732 -0.4999 0.0 0
M  V30 36 C -0.866 -1.9999 0.0 0
M  V30 37 C -1.732 -1.4999 0.0 0
M  V30 END ATOM
M  V30 BEGIN BOND
M  V30 1 2 1 2
M  V30 2 1 2 3
M  V30 3 1 2 4
M  V30 4 2 4 5
M  V30 5 1 4 6
M  V30 6 1 5 7
M  V30 7 1 5 8
M  V30 8 2 6 9
M  V30 9 2 7 10
M  V30 10 1 7 11
M  V30 11 2 8 12
M  V30 12 1 10 13
M  V30 13 2 11 14
M  V30 14 2 13 15
M  V30 15 1 15 16
M  V30 16 1 16 17
M  V30 17 1 17 18
M  V30 18 1 17 19
M  V30 19 2 18 20
M  V30 20 1 18 21
M  V30 21 2 19 22
M  V30 22 1 19 23
M  V30 23 1 20 24
M  V30 24 2 21 25
M  V30 25 1 22 26
M  V30 26 2 24 27
M  V30 27 1 27 28
M  V30 28 2 28 29
M  V30 29 1 28 30
M  V30 30 1 30 31
M  V30 31 1 31 32
M  V30 32 2 32 33
M  V30 33 1 32 34
M  V30 34 1 33 35
M  V30 35 2 34 36
M  V30 36 2 35 37
M  V30 37 1 9 12
M  V30 38 1 14 15
M  V30 39 1 20 22
M  V30 40 1 25 27
M  V30 41 1 36 37
M  V30 END BOND
M  V30 END CTAB
M  END
>  <Molecule ChEMBL ID>
CHEMBL602469

>  <Smiles>
Cc1c(C)n(Cc2ccc(-c3ccccc3C(=O)O)cc2)c2ccc(C(=O)NCc3ccccc3)cc12

>  <IC50_nM>
1

>  <Assay Description>
Lanthascreen Competitive Binding Assay: The assay was performed according to manufacturer protocol. A mixture of nM GST-PPARG-LBD, 5 nM Tb-GST-antibody, 5 nM Fluormone Pan-PPAR Green, and serial dilutions of the experimental compound, beginning at 10 ׬M downwards, was added to wells of black 384-well low-volume plates (Greiner) to a total volume of 18 ׬L. All dilutions were made in TR-FRET assay buffer C. DMSO at 2% final concentration was used as a no-ligand control. Experiment was performed in triplicate, and incubated for 2 hours in the dark prior to assay read in Perkin Elmer ViewLux ultra HTS microplate reader. FRET signal was measured by excitation at 340 nm and emission at 520 nm for fluorescein and 490 nm for terbium. Fold change over DMSO was calculated using GraphPad Prism Software (La Jolla, Calif.) by calculating 520 nm/490 nm ratio. Graphs were plotted as fold change of FRET signal for compound treatment over DMSO-only control.

$$$$
CHEMBL3678094
Actelion Java MolfileCreator 2.0

  0  0  0  0  0  0              0 V3000
M  V30 BEGIN CTAB
M  V30 COUNTS 30 33 0 0 0
M  V30 BEGIN ATOM
M  V30 1 F 8.8737 -1.5453 0.0 0
M  V30 2 C 8.5647 -2.4964 0.0 0
M  V30 3 C 7.5865 -2.7043 0.0 0
M  V30 4 C 9.2338 -3.2395 0.0 0
M  V30 5 C 7.2775 -3.6554 0.0 0
M  V30 6 C 6.9174 -1.9612 0.0 0
M  V30 7 C 8.9248 -4.1906 0.0 0
M  V30 8 C 7.9466 -4.3985 0.0 0
M  V30 9 N 5.9392 -2.1691 0.0 0
M  V30 10 F 9.5939 -4.9337 0.0 0
M  V30 11 C 5.1961 -1.4999 0.0 0
M  V30 12 C 5.5325 -3.0826 0.0 0
M  V30 13 C 4.3301 -1.9999 0.0 0
M  V30 14 C 5.1961 -0.4999 0.0 0
M  V30 15 C 4.538 -2.9781 0.0 0
M  V30 16 C 3.4641 -1.5 0.0 0
M  V30 17 C 4.3301 0.0 0.0 0
M  V30 18 C 3.4641 -0.5 0.0 0
M  V30 19 C 2.598 0.0 0.0 0
M  V30 20 O 2.598 1.0 0.0 0
M  V30 21 N 1.732 -0.5 0.0 0
M  V30 22 C 0.866 0.0 0.0 0 CFG=1
M  V30 23 C 0.866 1.0 0.0 0
M  V30 24 C 0.0 -0.5 0.0 0
M  V30 25 C 1.732 1.4999 0.0 0
M  V30 26 C 0.0 1.4999 0.0 0
M  V30 27 C 1.732 2.5 0.0 0
M  V30 28 C 0.0 2.5 0.0 0
M  V30 29 C 0.866 3.0 0.0 0
M  V30 30 F 0.866 4.0 0.0 0
M  V30 END ATOM
M  V30 BEGIN BOND
M  V30 1 1 1 2
M  V30 2 2 2 3
M  V30 3 1 2 4
M  V30 4 1 3 5
M  V30 5 1 3 6
M  V30 6 2 4 7
M  V30 7 2 5 8
M  V30 8 1 6 9
M  V30 9 1 7 10
M  V30 10 1 9 11
M  V30 11 1 9 12
M  V30 12 2 11 13
M  V30 13 1 11 14
M  V30 14 2 12 15
M  V30 15 1 13 16
M  V30 16 2 14 17
M  V30 17 2 16 18
M  V30 18 1 18 19
M  V30 19 2 19 20
M  V30 20 1 19 21
M  V30 21 1 21 22
M  V30 22 1 22 23
M  V30 23 1 22 24 CFG=3
M  V30 24 2 23 25
M  V30 25 1 23 26
M  V30 26 1 25 27
M  V30 27 2 26 28
M  V30 28 2 27 29
M  V30 29 1 29 30
M  V30 30 1 7 8
M  V30 31 1 13 15
M  V30 32 1 17 18
M  V30 33 1 28 29
M  V30 END BOND
M  V30 BEGIN COLLECTION
M  V30 MDLV30/STEABS ATOMS=(1 22)
M  V30 END COLLECTION
M  V30 END CTAB
M  END
>  <Molecule ChEMBL ID>
CHEMBL3678094

>  <Smiles>
C[C@@H](NC(=O)c1ccc2c(ccn2Cc2ccc(F)cc2F)c1)c1ccc(F)cc1

>  <IC50_nM>
1

>  <Assay Description>
Lanthascreen Competitive Binding Assay: The assay was performed according to manufacturer protocol. A mixture of 5 nM GST-PPARG-LBD, 5 nM Tb-GST-antibody, 5 nM Fluormone Pan- PPAR Green, and serial dilutions of the experimental compound, beginning at 10 ׬� downwards, was added to wells of black 384-well low- volume plates (Greiner) to a total volume of 18 xL. All dilutions were made in TR-FRET assay buffer C. DMSO at 2% final concentration was used as a no-ligand control. Experiment was performed in triplicate, and incubated for 2 hours in the dark prior to assay read in Perkin Elmer ViewLux ultra HTS microplate reader. FRET signal was measured by excitation at 340 nm and emission at 520 nm for fluorescein and 490 nm for terbium.

$$$$
CHEMBL371341
Actelion Java MolfileCreator 2.0

  0  0  0  0  0  0              0 V3000
M  V30 BEGIN CTAB
M  V30 COUNTS 39 43 0 0 0
M  V30 BEGIN ATOM
M  V30 1 Cl 6.4951 1.4999 0.0 0
M  V30 2 C 6.4951 0.0 0.0 0
M  V30 3 C 5.1961 -0.75 0.0 0
M  V30 4 C 7.7942 -0.75 0.0 0
M  V30 5 O 3.8971 0.0 0.0 0
M  V30 6 C 5.1961 -2.25 0.0 0
M  V30 7 C 7.7942 -2.25 0.0 0
M  V30 8 C 2.598 -0.75 0.0 0 CFG=2
M  V30 9 C 6.4951 -3.0 0.0 0
M  V30 10 C 1.299 0.0 0.0 0
M  V30 11 C 2.598 -2.25 0.0 0
M  V30 12 O 6.4951 -4.5 0.0 0
M  V30 13 O 1.299 1.5 0.0 0
M  V30 14 O 0.0 -0.75 0.0 0
M  V30 15 C 7.7942 -5.25 0.0 0
M  V30 16 C 7.951 -6.7417 0.0 0
M  V30 17 C 9.1645 -4.6398 0.0 0
M  V30 18 C 9.4182 -7.0536 0.0 0
M  V30 19 C 6.9473 -7.8565 0.0 0
M  V30 20 N 10.1682 -5.7546 0.0 0
M  V30 21 C 9.4764 -3.1726 0.0 0
M  V30 22 C 9.8817 -8.4802 0.0 0
M  V30 23 C 7.4108 -9.283 0.0 0
M  V30 24 C 11.66 -5.5978 0.0 0
M  V30 25 C 8.878 -9.5949 0.0 0
M  V30 26 O 6.4071 -10.3978 0.0 0
M  V30 27 N 12.6637 -6.7125 0.0 0
M  V30 28 C 12.41 -4.2987 0.0 0
M  V30 29 C 6.8706 -11.8243 0.0 0
M  V30 30 O 14.034 -6.1024 0.0 0
M  V30 31 C 13.8772 -4.6106 0.0 0
M  V30 32 C 11.9465 -2.8721 0.0 0
M  V30 33 F 8.2972 -11.3608 0.0 0
M  V30 34 F 7.3342 -13.2509 0.0 0
M  V30 35 F 5.444 -12.2879 0.0 0
M  V30 36 C 14.8809 -3.4959 0.0 0
M  V30 37 C 12.9501 -1.7574 0.0 0
M  V30 38 C 14.4174 -2.0693 0.0 0
M  V30 39 Cl 15.4211 -0.9546 0.0 0
M  V30 END ATOM
M  V30 BEGIN BOND
M  V30 1 1 1 2
M  V30 2 2 2 3
M  V30 3 1 2 4
M  V30 4 1 3 5
M  V30 5 1 3 6
M  V30 6 2 4 7
M  V30 7 1 5 8
M  V30 8 2 6 9
M  V30 9 1 8 10
M  V30 10 1 8 11 CFG=1
M  V30 11 1 9 12
M  V30 12 2 10 13
M  V30 13 1 10 14
M  V30 14 1 12 15
M  V30 15 1 15 16
M  V30 16 2 15 17
M  V30 17 2 16 18
M  V30 18 1 16 19
M  V30 19 1 17 20
M  V30 20 1 17 21
M  V30 21 1 18 22
M  V30 22 2 19 23
M  V30 23 1 20 24
M  V30 24 2 22 25
M  V30 25 1 23 26
M  V30 26 2 24 27
M  V30 27 1 24 28
M  V30 28 1 26 29
M  V30 29 1 27 30
M  V30 30 2 28 31
M  V30 31 1 28 32
M  V30 32 1 29 33
M  V30 33 1 29 34
M  V30 34 1 29 35
M  V30 35 1 31 36
M  V30 36 2 32 37
M  V30 37 2 36 38
M  V30 38 1 38 39
M  V30 39 1 7 9
M  V30 40 1 18 20
M  V30 41 1 23 25
M  V30 42 1 30 31
M  V30 43 1 37 38
M  V30 END BOND
M  V30 BEGIN COLLECTION
M  V30 MDLV30/STEABS ATOMS=(1 8)
M  V30 END COLLECTION
M  V30 END CTAB
M  END
>  <Molecule ChEMBL ID>
CHEMBL371341

>  <Smiles>
Cc1c(Oc2ccc(Cl)c(O[C@@H](C)C(=O)O)c2)c2cc(OC(F)(F)F)ccc2n1-c1noc2cc(Cl)ccc12

>  <IC50_nM>
1

>  <Assay Description>
Inhibition of human peroxisome proliferator activated receptor gamma binding

$$$$
CHEMBL3695821
Actelion Java MolfileCreator 2.0

  0  0  0  0  0  0              0 V3000
M  V30 BEGIN CTAB
M  V30 COUNTS 36 40 0 0 0
M  V30 BEGIN ATOM
M  V30 1 S 4.3776 -0.0932 0.0 0
M  V30 2 C 3.4641 -0.5 0.0 0
M  V30 3 C 5.0467 -0.8364 0.0 0
M  V30 4 C 3.5686 -1.4945 0.0 0
M  V30 5 C 2.598 0.0 0.0 0
M  V30 6 C 4.5467 -1.7024 0.0 0
M  V30 7 N 1.732 -0.5 0.0 0
M  V30 8 C 0.866 0.0 0.0 0
M  V30 9 O 0.866 1.0 0.0 0
M  V30 10 C 0.0 -0.5 0.0 0
M  V30 11 C 0.0 -1.4999 0.0 0
M  V30 12 C -0.866 0.0 0.0 0
M  V30 13 C -0.866 -1.9999 0.0 0
M  V30 14 C -1.732 -0.4999 0.0 0
M  V30 15 C -1.732 -1.4999 0.0 0
M  V30 16 C -1.0739 -2.9781 0.0 0
M  V30 17 N -2.4751 -2.1691 0.0 0
M  V30 18 C -2.0684 -3.0826 0.0 0
M  V30 19 C -0.4048 -3.7212 0.0 0
M  V30 20 C -3.4533 -1.9612 0.0 0
M  V30 21 C -2.5684 -3.9487 0.0 0
M  V30 22 C -4.1224 -2.7043 0.0 0
M  V30 23 C -5.1006 -2.4964 0.0 0
M  V30 24 C -3.8134 -3.6554 0.0 0
M  V30 25 C -5.7697 -3.2395 0.0 0
M  V30 26 C -4.4825 -4.3985 0.0 0
M  V30 27 C -5.4607 -4.1906 0.0 0
M  V30 28 C -6.1298 -4.9337 0.0 0
M  V30 29 C -7.108 -4.7258 0.0 0
M  V30 30 C -5.8208 -5.8848 0.0 0
M  V30 31 C -7.417 -3.7748 0.0 0
M  V30 32 C -7.7771 -5.469 0.0 0
M  V30 33 C -6.4899 -6.6279 0.0 0
M  V30 34 O -6.7478 -3.0316 0.0 0
M  V30 35 O -8.3951 -3.5669 0.0 0
M  V30 36 C -7.4681 -6.42 0.0 0
M  V30 END ATOM
M  V30 BEGIN BOND
M  V30 1 1 1 2
M  V30 2 1 1 3
M  V30 3 2 2 4
M  V30 4 1 2 5
M  V30 5 2 3 6
M  V30 6 1 5 7
M  V30 7 1 7 8
M  V30 8 2 8 9
M  V30 9 1 8 10
M  V30 10 2 10 11
M  V30 11 1 10 12
M  V30 12 1 11 13
M  V30 13 2 12 14
M  V30 14 2 13 15
M  V30 15 1 13 16
M  V30 16 1 15 17
M  V30 17 2 16 18
M  V30 18 1 16 19
M  V30 19 1 17 20
M  V30 20 1 18 21
M  V30 21 1 20 22
M  V30 22 2 22 23
M  V30 23 1 22 24
M  V30 24 1 23 25
M  V30 25 2 24 26
M  V30 26 2 25 27
M  V30 27 1 27 28
M  V30 28 2 28 29
M  V30 29 1 28 30
M  V30 30 1 29 31
M  V30 31 1 29 32
M  V30 32 2 30 33
M  V30 33 2 31 34
M  V30 34 1 31 35
M  V30 35 2 32 36
M  V30 36 1 4 6
M  V30 37 1 14 15
M  V30 38 1 17 18
M  V30 39 1 26 27
M  V30 40 1 33 36
M  V30 END BOND
M  V30 END CTAB
M  END
>  <Molecule ChEMBL ID>
CHEMBL3695821

>  <Smiles>
Cc1c(C)n(Cc2ccc(-c3ccccc3C(=O)O)cc2)c2ccc(C(=O)NCc3cccs3)cc12

>  <IC50_nM>
1

>  <Assay Description>
Lanthascreen Competitive Binding Assay: The assay was performed according to manufacturer protocol. A mixture of nM GST-PPARG-LBD, 5 nM Tb-GST-antibody, 5 nM Fluormone Pan-PPAR Green, and serial dilutions of the experimental compound, beginning at 10 ׬M downwards, was added to wells of black 384-well low-volume plates (Greiner) to a total volume of 18 ׬L. All dilutions were made in TR-FRET assay buffer C. DMSO at 2% final concentration was used as a no-ligand control. Experiment was performed in triplicate, and incubated for 2 hours in the dark prior to assay read in Perkin Elmer ViewLux ultra HTS microplate reader. FRET signal was measured by excitation at 340 nm and emission at 520 nm for fluorescein and 490 nm for terbium. Fold change over DMSO was calculated using GraphPad Prism Software (La Jolla, Calif.) by calculating 520 nm/490 nm ratio. Graphs were plotted as fold change of FRET signal for compound treatment over DMSO-only control.

$$$$
CHEMBL3695879
Actelion Java MolfileCreator 2.0

  0  0  0  0  0  0              0 V3000
M  V30 BEGIN CTAB
M  V30 COUNTS 40 44 0 0 0
M  V30 BEGIN ATOM
M  V30 1 O 6.4951 0.0 0.0 0
M  V30 2 C 5.1961 -0.75 0.0 0
M  V30 3 N 3.8971 0.0 0.0 0
M  V30 4 C 5.1961 -2.25 0.0 0
M  V30 5 C 3.8971 1.4999 0.0 0 CFG=1
M  V30 6 C 6.4951 -3.0 0.0 0
M  V30 7 C 3.8971 -3.0 0.0 0
M  V30 8 C 2.598 2.25 0.0 0
M  V30 9 C 5.1961 2.2499 0.0 0
M  V30 10 C 6.4951 -4.5 0.0 0
M  V30 11 C 3.8971 -4.5 0.0 0
M  V30 12 C 2.598 3.75 0.0 0
M  V30 13 C 1.299 1.5 0.0 0
M  V30 14 C 6.4951 1.5 0.0 0
M  V30 15 C 5.1961 3.75 0.0 0
M  V30 16 C 5.1961 -5.25 0.0 0
M  V30 17 C 7.6099 -5.5036 0.0 0
M  V30 18 C 1.299 4.5 0.0 0
M  V30 19 C 0.0 2.25 0.0 0
M  V30 20 N 5.508 -6.7172 0.0 0
M  V30 21 C 6.9998 -6.874 0.0 0
M  V30 22 C 9.0771 -5.1918 0.0 0
M  V30 23 C 0.0 3.75 0.0 0
M  V30 24 C 1.299 6.0 0.0 0
M  V30 25 C 4.5043 -7.8319 0.0 0
M  V30 26 C 7.7498 -8.173 0.0 0
M  V30 27 C 2.598 6.75 0.0 0
M  V30 28 C 0.0 6.75 0.0 0
M  V30 29 C 4.9678 -9.2585 0.0 0
M  V30 30 C 3.9641 -10.3732 0.0 0
M  V30 31 C 6.435 -9.5703 0.0 0
M  V30 32 C 4.4276 -11.7998 0.0 0
M  V30 33 C 6.8985 -10.9969 0.0 0
M  V30 34 C 5.8949 -12.1116 0.0 0
M  V30 35 C 6.3584 -13.5382 0.0 0
M  V30 36 C 5.3547 -14.6529 0.0 0
M  V30 37 C 7.8256 -13.8501 0.0 0
M  V30 38 C 5.8182 -16.0795 0.0 0
M  V30 39 C 8.2891 -15.2767 0.0 0
M  V30 40 C 7.2854 -16.3914 0.0 0
M  V30 END ATOM
M  V30 BEGIN BOND
M  V30 1 2 1 2
M  V30 2 1 2 3
M  V30 3 1 2 4
M  V30 4 1 5 3 CFG=1
M  V30 5 2 4 6
M  V30 6 1 4 7
M  V30 7 1 5 8
M  V30 8 1 5 9
M  V30 9 1 6 10
M  V30 10 2 7 11
M  V30 11 2 8 12
M  V30 12 1 8 13
M  V30 13 1 9 14
M  V30 14 1 9 15
M  V30 15 2 10 16
M  V30 16 1 10 17
M  V30 17 1 12 18
M  V30 18 2 13 19
M  V30 19 1 16 20
M  V30 20 2 17 21
M  V30 21 1 17 22
M  V30 22 2 18 23
M  V30 23 1 18 24
M  V30 24 1 20 25
M  V30 25 1 21 26
M  V30 26 1 24 27
M  V30 27 1 24 28
M  V30 28 1 25 29
M  V30 29 2 29 30
M  V30 30 1 29 31
M  V30 31 1 30 32
M  V30 32 2 31 33
M  V30 33 2 32 34
M  V30 34 1 34 35
M  V30 35 2 35 36
M  V30 36 1 35 37
M  V30 37 1 36 38
M  V30 38 2 37 39
M  V30 39 2 38 40
M  V30 40 1 11 16
M  V30 41 1 19 23
M  V30 42 1 20 21
M  V30 43 1 33 34
M  V30 44 1 39 40
M  V30 END BOND
M  V30 BEGIN COLLECTION
M  V30 MDLV30/STEABS ATOMS=(1 5)
M  V30 END COLLECTION
M  V30 END CTAB
M  END
>  <Molecule ChEMBL ID>
CHEMBL3695879

>  <Smiles>
Cc1c(C)n(Cc2ccc(-c3ccccc3)cc2)c2ccc(C(=O)N[C@@H](c3cccc(C(C)C)c3)C(C)C)cc12

>  <IC50_nM>
1

>  <Assay Description>
Lanthascreen Competitive Binding Assay: The assay was performed according to manufacturer protocol. A mixture of nM GST-PPARG-LBD, 5 nM Tb-GST-antibody, 5 nM Fluormone Pan-PPAR Green, and serial dilutions of the experimental compound, beginning at 10 ׬M downwards, was added to wells of black 384-well low-volume plates (Greiner) to a total volume of 18 ׬L. All dilutions were made in TR-FRET assay buffer C. DMSO at 2% final concentration was used as a no-ligand control. Experiment was performed in triplicate, and incubated for 2 hours in the dark prior to assay read in Perkin Elmer ViewLux ultra HTS microplate reader. FRET signal was measured by excitation at 340 nm and emission at 520 nm for fluorescein and 490 nm for terbium. Fold change over DMSO was calculated using GraphPad Prism Software (La Jolla, Calif.) by calculating 520 nm/490 nm ratio. Graphs were plotted as fold change of FRET signal for compound treatment over DMSO-only control.

$$$$
CHEMBL3695885
Actelion Java MolfileCreator 2.0

  0  0  0  0  0  0              0 V3000
M  V30 BEGIN CTAB
M  V30 COUNTS 36 40 0 0 0
M  V30 BEGIN ATOM
M  V30 1 Cl 6.0621 0.0 0.0 0
M  V30 2 C 5.1961 -0.5 0.0 0
M  V30 3 C 4.3301 0.0 0.0 0
M  V30 4 C 5.1961 -1.4999 0.0 0
M  V30 5 C 3.4641 -0.5 0.0 0
M  V30 6 C 4.3301 -1.9999 0.0 0
M  V30 7 C 3.4641 -1.4999 0.0 0
M  V30 8 C 2.598 0.0 0.0 0 CFG=2
M  V30 9 N 1.732 -0.5 0.0 0
M  V30 10 C 2.598 1.0 0.0 0
M  V30 11 C 0.866 0.0 0.0 0
M  V30 12 O 0.866 1.0 0.0 0
M  V30 13 C 0.0 -0.5 0.0 0
M  V30 14 C 0.0 -1.4999 0.0 0
M  V30 15 C -0.866 0.0 0.0 0
M  V30 16 C -0.866 -1.9999 0.0 0
M  V30 17 C -1.732 -0.4999 0.0 0
M  V30 18 C -1.732 -1.4999 0.0 0
M  V30 19 C -1.0739 -2.9781 0.0 0
M  V30 20 N -2.4751 -2.1691 0.0 0
M  V30 21 C -2.0684 -3.0826 0.0 0
M  V30 22 C -0.4048 -3.7212 0.0 0
M  V30 23 C -3.4533 -1.9612 0.0 0
M  V30 24 C -2.5684 -3.9487 0.0 0
M  V30 25 C -4.1224 -2.7043 0.0 0
M  V30 26 C -5.1006 -2.4964 0.0 0
M  V30 27 C -3.8134 -3.6554 0.0 0
M  V30 28 C -5.7697 -3.2395 0.0 0
M  V30 29 C -4.4825 -4.3985 0.0 0
M  V30 30 C -5.4607 -4.1906 0.0 0
M  V30 31 C -6.1298 -4.9337 0.0 0
M  V30 32 C -7.108 -4.7258 0.0 0
M  V30 33 C -5.8208 -5.8848 0.0 0
M  V30 34 C -7.7771 -5.469 0.0 0
M  V30 35 C -6.4899 -6.6279 0.0 0
M  V30 36 C -7.4681 -6.42 0.0 0
M  V30 END ATOM
M  V30 BEGIN BOND
M  V30 1 1 1 2
M  V30 2 2 2 3
M  V30 3 1 2 4
M  V30 4 1 3 5
M  V30 5 2 4 6
M  V30 6 2 5 7
M  V30 7 1 5 8
M  V30 8 1 8 9
M  V30 9 1 8 10 CFG=3
M  V30 10 1 9 11
M  V30 11 2 11 12
M  V30 12 1 11 13
M  V30 13 2 13 14
M  V30 14 1 13 15
M  V30 15 1 14 16
M  V30 16 2 15 17
M  V30 17 2 16 18
M  V30 18 1 16 19
M  V30 19 1 18 20
M  V30 20 2 19 21
M  V30 21 1 19 22
M  V30 22 1 20 23
M  V30 23 1 21 24
M  V30 24 1 23 25
M  V30 25 2 25 26
M  V30 26 1 25 27
M  V30 27 1 26 28
M  V30 28 2 27 29
M  V30 29 2 28 30
M  V30 30 1 30 31
M  V30 31 2 31 32
M  V30 32 1 31 33
M  V30 33 1 32 34
M  V30 34 2 33 35
M  V30 35 2 34 36
M  V30 36 1 6 7
M  V30 37 1 17 18
M  V30 38 1 20 21
M  V30 39 1 29 30
M  V30 40 1 35 36
M  V30 END BOND
M  V30 BEGIN COLLECTION
M  V30 MDLV30/STEABS ATOMS=(1 8)
M  V30 END COLLECTION
M  V30 END CTAB
M  END
>  <Molecule ChEMBL ID>
CHEMBL3695885

>  <Smiles>
Cc1c(C)n(Cc2ccc(-c3ccccc3)cc2)c2ccc(C(=O)N[C@H](C)c3cccc(Cl)c3)cc12

>  <IC50_nM>
1

>  <Assay Description>
Lanthascreen Competitive Binding Assay: The assay was performed according to manufacturer protocol. A mixture of nM GST-PPARG-LBD, 5 nM Tb-GST-antibody, 5 nM Fluormone Pan-PPAR Green, and serial dilutions of the experimental compound, beginning at 10 ׬M downwards, was added to wells of black 384-well low-volume plates (Greiner) to a total volume of 18 ׬L. All dilutions were made in TR-FRET assay buffer C. DMSO at 2% final concentration was used as a no-ligand control. Experiment was performed in triplicate, and incubated for 2 hours in the dark prior to assay read in Perkin Elmer ViewLux ultra HTS microplate reader. FRET signal was measured by excitation at 340 nm and emission at 520 nm for fluorescein and 490 nm for terbium. Fold change over DMSO was calculated using GraphPad Prism Software (La Jolla, Calif.) by calculating 520 nm/490 nm ratio. Graphs were plotted as fold change of FRET signal for compound treatment over DMSO-only control.

$$$$
CHEMBL435517
Actelion Java MolfileCreator 2.0

  0  0  0  0  0  0              0 V3000
M  V30 BEGIN CTAB
M  V30 COUNTS 38 41 0 0 0
M  V30 BEGIN ATOM
M  V30 1 F 4.8174 -4.7021 0.0 0
M  V30 2 C 5.0253 -3.7239 0.0 0
M  V30 3 F 4.0471 -3.516 0.0 0
M  V30 4 F 5.2332 -2.7458 0.0 0
M  V30 5 O 6.0034 -3.9318 0.0 0
M  V30 6 C 6.6726 -3.1887 0.0 0
M  V30 7 C 6.3636 -2.2376 0.0 0
M  V30 8 C 7.6507 -3.3966 0.0 0
M  V30 9 C 7.0327 -1.4945 0.0 0
M  V30 10 C 8.3198 -2.6534 0.0 0
M  V30 11 C 8.0108 -1.7024 0.0 0
M  V30 12 C 6.9282 -0.5 0.0 0
M  V30 13 N 8.5108 -0.8364 0.0 0
M  V30 14 C 7.8417 -0.0932 0.0 0
M  V30 15 C 6.0621 0.0 0.0 0
M  V30 16 C 9.5054 -0.7318 0.0 0
M  V30 17 C 8.0496 0.8848 0.0 0
M  V30 18 C 5.1961 -0.5 0.0 0
M  V30 19 O 10.0931 -1.5408 0.0 0
M  V30 20 C 9.9121 0.1816 0.0 0
M  V30 21 C 4.3301 0.0 0.0 0
M  V30 22 C 5.1961 -1.4999 0.0 0
M  V30 23 C 10.9066 0.2861 0.0 0
M  V30 24 C 9.3243 0.9906 0.0 0
M  V30 25 C 3.4641 -0.5 0.0 0
M  V30 26 C 4.3301 -1.9999 0.0 0
M  V30 27 C 11.3133 1.1997 0.0 0
M  V30 28 C 9.731 1.9042 0.0 0
M  V30 29 O 2.598 0.0 0.0 0
M  V30 30 C 3.4641 -1.4999 0.0 0
M  V30 31 C 10.7256 2.0087 0.0 0
M  V30 32 C 1.732 -0.5 0.0 0 CFG=2
M  V30 33 O 11.1323 2.9223 0.0 0
M  V30 34 C 0.866 0.0 0.0 0
M  V30 35 C 1.732 -1.5 0.0 0
M  V30 36 C 10.5445 3.7313 0.0 0
M  V30 37 O 0.866 1.0 0.0 0
M  V30 38 O 0.0 -0.5 0.0 0
M  V30 END ATOM
M  V30 BEGIN BOND
M  V30 1 1 1 2
M  V30 2 1 2 3
M  V30 3 1 2 4
M  V30 4 1 2 5
M  V30 5 1 5 6
M  V30 6 2 6 7
M  V30 7 1 6 8
M  V30 8 1 7 9
M  V30 9 2 8 10
M  V30 10 2 9 11
M  V30 11 1 9 12
M  V30 12 1 11 13
M  V30 13 2 12 14
M  V30 14 1 12 15
M  V30 15 1 13 16
M  V30 16 1 14 17
M  V30 17 1 15 18
M  V30 18 2 16 19
M  V30 19 1 16 20
M  V30 20 2 18 21
M  V30 21 1 18 22
M  V30 22 2 20 23
M  V30 23 1 20 24
M  V30 24 1 21 25
M  V30 25 2 22 26
M  V30 26 1 23 27
M  V30 27 2 24 28
M  V30 28 1 25 29
M  V30 29 2 25 30
M  V30 30 2 27 31
M  V30 31 1 29 32
M  V30 32 1 31 33
M  V30 33 1 32 34
M  V30 34 1 32 35 CFG=1
M  V30 35 1 33 36
M  V30 36 2 34 37
M  V30 37 1 34 38
M  V30 38 1 10 11
M  V30 39 1 13 14
M  V30 40 1 26 30
M  V30 41 1 28 31
M  V30 END BOND
M  V30 BEGIN COLLECTION
M  V30 MDLV30/STERAC1 ATOMS=(1 32)
M  V30 END COLLECTION
M  V30 END CTAB
M  END
>  <Molecule ChEMBL ID>
CHEMBL435517

>  <Smiles>
COc1ccc(C(=O)n2c(C)c(Cc3cccc(OC(C)C(=O)O)c3)c3cc(OC(F)(F)F)ccc32)cc1

>  <IC50_nM>
1

>  <Assay Description>
In vitro inhibition of human Peroxisome proliferator activated receptor gamma

$$$$
CHEMBL179330
Actelion Java MolfileCreator 2.0

  0  0  0  0  0  0              0 V3000
M  V30 BEGIN CTAB
M  V30 COUNTS 38 41 0 0 0
M  V30 BEGIN ATOM
M  V30 1 F 4.8174 -4.7021 0.0 0
M  V30 2 C 5.0253 -3.7239 0.0 0
M  V30 3 F 4.0471 -3.516 0.0 0
M  V30 4 F 5.2332 -2.7458 0.0 0
M  V30 5 O 6.0034 -3.9318 0.0 0
M  V30 6 C 6.6726 -3.1887 0.0 0
M  V30 7 C 6.3636 -2.2376 0.0 0
M  V30 8 C 7.6507 -3.3966 0.0 0
M  V30 9 C 7.0327 -1.4945 0.0 0
M  V30 10 C 8.3198 -2.6534 0.0 0
M  V30 11 C 8.0108 -1.7024 0.0 0
M  V30 12 C 6.9282 -0.5 0.0 0
M  V30 13 N 8.5108 -0.8364 0.0 0
M  V30 14 C 7.8417 -0.0932 0.0 0
M  V30 15 C 6.0621 0.0 0.0 0
M  V30 16 C 9.5054 -0.7318 0.0 0
M  V30 17 C 8.0496 0.8848 0.0 0
M  V30 18 C 5.1961 -0.5 0.0 0
M  V30 19 O 10.0931 -1.5408 0.0 0
M  V30 20 C 9.9121 0.1816 0.0 0
M  V30 21 C 4.3301 0.0 0.0 0
M  V30 22 C 5.1961 -1.4999 0.0 0
M  V30 23 C 10.9066 0.2861 0.0 0
M  V30 24 C 9.3243 0.9906 0.0 0
M  V30 25 C 3.4641 -0.5 0.0 0
M  V30 26 C 4.3301 -1.9999 0.0 0
M  V30 27 C 11.3133 1.1997 0.0 0
M  V30 28 C 9.731 1.9042 0.0 0
M  V30 29 O 2.598 0.0 0.0 0
M  V30 30 C 3.4641 -1.4999 0.0 0
M  V30 31 C 10.7256 2.0087 0.0 0
M  V30 32 C 1.732 -0.5 0.0 0 CFG=2
M  V30 33 O 11.1323 2.9223 0.0 0
M  V30 34 C 0.866 0.0 0.0 0
M  V30 35 C 1.732 -1.5 0.0 0
M  V30 36 C 10.5445 3.7313 0.0 0
M  V30 37 O 0.866 1.0 0.0 0
M  V30 38 O 0.0 -0.5 0.0 0
M  V30 END ATOM
M  V30 BEGIN BOND
M  V30 1 1 1 2
M  V30 2 1 2 3
M  V30 3 1 2 4
M  V30 4 1 2 5
M  V30 5 1 5 6
M  V30 6 2 6 7
M  V30 7 1 6 8
M  V30 8 1 7 9
M  V30 9 2 8 10
M  V30 10 2 9 11
M  V30 11 1 9 12
M  V30 12 1 11 13
M  V30 13 2 12 14
M  V30 14 1 12 15
M  V30 15 1 13 16
M  V30 16 1 14 17
M  V30 17 1 15 18
M  V30 18 2 16 19
M  V30 19 1 16 20
M  V30 20 2 18 21
M  V30 21 1 18 22
M  V30 22 2 20 23
M  V30 23 1 20 24
M  V30 24 1 21 25
M  V30 25 2 22 26
M  V30 26 1 23 27
M  V30 27 2 24 28
M  V30 28 1 25 29
M  V30 29 2 25 30
M  V30 30 2 27 31
M  V30 31 1 29 32
M  V30 32 1 31 33
M  V30 33 1 32 34
M  V30 34 1 32 35 CFG=1
M  V30 35 1 33 36
M  V30 36 2 34 37
M  V30 37 1 34 38
M  V30 38 1 10 11
M  V30 39 1 13 14
M  V30 40 1 26 30
M  V30 41 1 28 31
M  V30 END BOND
M  V30 BEGIN COLLECTION
M  V30 MDLV30/STEABS ATOMS=(1 32)
M  V30 END COLLECTION
M  V30 END CTAB
M  END
>  <Molecule ChEMBL ID>
CHEMBL179330

>  <Smiles>
COc1ccc(C(=O)n2c(C)c(Cc3cccc(O[C@@H](C)C(=O)O)c3)c3cc(OC(F)(F)F)ccc32)cc1

>  <IC50_nM>
1

>  <Assay Description>
In vitro inhibition of human Peroxisome proliferator activated receptor gamma

$$$$
CHEMBL181628
Actelion Java MolfileCreator 2.0

  0  0  0  0  0  0              0 V3000
M  V30 BEGIN CTAB
M  V30 COUNTS 38 41 0 0 0
M  V30 BEGIN ATOM
M  V30 1 F 7.7798 -2.429 0.0 0
M  V30 2 C 7.0367 -1.7599 0.0 0
M  V30 3 F 6.3676 -2.503 0.0 0
M  V30 4 F 6.2936 -1.0907 0.0 0
M  V30 5 O 7.7058 -1.0167 0.0 0
M  V30 6 C 7.3968 -0.0657 0.0 0
M  V30 7 C 6.4187 0.1422 0.0 0
M  V30 8 C 8.0659 0.6774 0.0 0
M  V30 9 C 6.1096 1.0932 0.0 0
M  V30 10 C 7.7569 1.6284 0.0 0
M  V30 11 C 6.7788 1.8364 0.0 0
M  V30 12 C 5.1961 1.4999 0.0 0
M  V30 13 N 6.2788 2.7024 0.0 0
M  V30 14 C 5.3006 2.4945 0.0 0
M  V30 15 C 4.3301 0.9999 0.0 0
M  V30 16 C 6.6855 3.6159 0.0 0
M  V30 17 C 4.5575 3.1636 0.0 0
M  V30 18 C 4.3301 0.0 0.0 0
M  V30 19 O 7.68 3.7205 0.0 0
M  V30 20 C 6.0977 4.4249 0.0 0
M  V30 21 C 3.4641 -0.5 0.0 0
M  V30 22 C 5.1961 -0.5 0.0 0
M  V30 23 C 6.5045 5.3385 0.0 0
M  V30 24 C 5.1032 4.3204 0.0 0
M  V30 25 O 2.598 0.0 0.0 0
M  V30 26 C 3.4641 -1.5 0.0 0
M  V30 27 C 5.1961 -1.5 0.0 0
M  V30 28 C 5.9167 6.1475 0.0 0
M  V30 29 C 4.5154 5.1294 0.0 0
M  V30 30 C 1.732 -0.5 0.0 0 CFG=2
M  V30 31 C 4.3301 -2.0 0.0 0
M  V30 32 C 4.9222 6.043 0.0 0
M  V30 33 C 0.866 0.0 0.0 0
M  V30 34 C 1.732 -1.5 0.0 0
M  V30 35 O 4.3344 6.852 0.0 0
M  V30 36 O 0.866 1.0 0.0 0
M  V30 37 O 0.0 -0.5 0.0 0
M  V30 38 C 3.3399 6.7475 0.0 0
M  V30 END ATOM
M  V30 BEGIN BOND
M  V30 1 1 1 2
M  V30 2 1 2 3
M  V30 3 1 2 4
M  V30 4 1 2 5
M  V30 5 1 5 6
M  V30 6 2 6 7
M  V30 7 1 6 8
M  V30 8 1 7 9
M  V30 9 2 8 10
M  V30 10 2 9 11
M  V30 11 1 9 12
M  V30 12 1 11 13
M  V30 13 2 12 14
M  V30 14 1 12 15
M  V30 15 1 13 16
M  V30 16 1 14 17
M  V30 17 1 15 18
M  V30 18 2 16 19
M  V30 19 1 16 20
M  V30 20 2 18 21
M  V30 21 1 18 22
M  V30 22 2 20 23
M  V30 23 1 20 24
M  V30 24 1 21 25
M  V30 25 1 21 26
M  V30 26 2 22 27
M  V30 27 1 23 28
M  V30 28 2 24 29
M  V30 29 1 25 30
M  V30 30 2 26 31
M  V30 31 2 28 32
M  V30 32 1 30 33
M  V30 33 1 30 34 CFG=1
M  V30 34 1 32 35
M  V30 35 2 33 36
M  V30 36 1 33 37
M  V30 37 1 35 38
M  V30 38 1 10 11
M  V30 39 1 13 14
M  V30 40 1 27 31
M  V30 41 1 29 32
M  V30 END BOND
M  V30 BEGIN COLLECTION
M  V30 MDLV30/STERAC1 ATOMS=(1 30)
M  V30 END COLLECTION
M  V30 END CTAB
M  END
>  <Molecule ChEMBL ID>
CHEMBL181628

>  <Smiles>
COc1ccc(C(=O)n2c(C)c(Cc3ccccc3OC(C)C(=O)O)c3cc(OC(F)(F)F)ccc32)cc1

>  <IC50_nM>
1

>  <Assay Description>
In vitro inhibition of human Peroxisome proliferator activated receptor gamma

$$$$
CHEMBL3678098
Actelion Java MolfileCreator 2.0

  0  0  0  0  0  0              0 V3000
M  V30 BEGIN CTAB
M  V30 COUNTS 32 35 0 0 0
M  V30 BEGIN ATOM
M  V30 1 F 7.9402 4.1621 0.0 0
M  V30 2 C 8.6094 3.419 0.0 0
M  V30 3 C 8.3003 2.4679 0.0 0
M  V30 4 C 9.5875 3.6269 0.0 0
M  V30 5 C 8.9695 1.7248 0.0 0
M  V30 6 C 7.3222 2.26 0.0 0
M  V30 7 C 10.2566 2.8838 0.0 0
M  V30 8 C 9.9476 1.9327 0.0 0
M  V30 9 N 7.0132 1.309 0.0 0
M  V30 10 F 11.2348 3.0917 0.0 0
M  V30 11 C 6.0621 0.9999 0.0 0
M  V30 12 C 7.601 0.5 0.0 0
M  V30 13 C 6.0621 0.0 0.0 0
M  V30 14 C 5.1961 1.4999 0.0 0
M  V30 15 C 7.0132 -0.309 0.0 0
M  V30 16 C 8.601 0.5 0.0 0
M  V30 17 C 5.1961 -0.5 0.0 0
M  V30 18 C 4.3301 0.9999 0.0 0
M  V30 19 C 7.3222 -1.26 0.0 0
M  V30 20 C 4.3301 0.0 0.0 0
M  V30 21 C 3.4641 -0.5 0.0 0
M  V30 22 O 3.4641 -1.5 0.0 0
M  V30 23 N 2.598 0.0 0.0 0
M  V30 24 C 1.732 -0.5 0.0 0 CFG=2
M  V30 25 C 1.732 -1.5 0.0 0
M  V30 26 C 0.866 0.0 0.0 0
M  V30 27 C 0.866 -1.9999 0.0 0
M  V30 28 C 2.598 -2.0 0.0 0
M  V30 29 C 0.0 -0.5 0.0 0
M  V30 30 C 0.866 -2.9999 0.0 0
M  V30 31 C 2.598 -3.0 0.0 0
M  V30 32 C 1.732 -3.5 0.0 0
M  V30 END ATOM
M  V30 BEGIN BOND
M  V30 1 1 1 2
M  V30 2 2 2 3
M  V30 3 1 2 4
M  V30 4 1 3 5
M  V30 5 1 3 6
M  V30 6 2 4 7
M  V30 7 2 5 8
M  V30 8 1 6 9
M  V30 9 1 7 10
M  V30 10 1 9 11
M  V30 11 1 9 12
M  V30 12 2 11 13
M  V30 13 1 11 14
M  V30 14 2 12 15
M  V30 15 1 12 16
M  V30 16 1 13 17
M  V30 17 2 14 18
M  V30 18 1 15 19
M  V30 19 2 17 20
M  V30 20 1 20 21
M  V30 21 2 21 22
M  V30 22 1 21 23
M  V30 23 1 24 23 CFG=3
M  V30 24 1 24 25
M  V30 25 1 24 26
M  V30 26 2 25 27
M  V30 27 1 25 28
M  V30 28 1 26 29
M  V30 29 1 27 30
M  V30 30 2 28 31
M  V30 31 2 30 32
M  V30 32 1 7 8
M  V30 33 1 13 15
M  V30 34 1 18 20
M  V30 35 1 31 32
M  V30 END BOND
M  V30 BEGIN COLLECTION
M  V30 MDLV30/STERAC1 ATOMS=(1 24)
M  V30 END COLLECTION
M  V30 END CTAB
M  END
>  <Molecule ChEMBL ID>
CHEMBL3678098

>  <Smiles>
CCC(NC(=O)c1ccc2c(c1)c(C)c(C)n2Cc1ccc(F)cc1F)c1ccccc1

>  <IC50_nM>
1

>  <Assay Description>
Lanthascreen Competitive Binding Assay: The assay was performed according to manufacturer protocol. A mixture of 5 nM GST-PPARG-LBD, 5 nM Tb-GST-antibody, 5 nM Fluormone Pan- PPAR Green, and serial dilutions of the experimental compound, beginning at 10 ׬� downwards, was added to wells of black 384-well low- volume plates (Greiner) to a total volume of 18 xL. All dilutions were made in TR-FRET assay buffer C. DMSO at 2% final concentration was used as a no-ligand control. Experiment was performed in triplicate, and incubated for 2 hours in the dark prior to assay read in Perkin Elmer ViewLux ultra HTS microplate reader. FRET signal was measured by excitation at 340 nm and emission at 520 nm for fluorescein and 490 nm for terbium.

$$$$
CHEMBL179330
Actelion Java MolfileCreator 2.0

  0  0  0  0  0  0              0 V3000
M  V30 BEGIN CTAB
M  V30 COUNTS 38 41 0 0 0
M  V30 BEGIN ATOM
M  V30 1 F 4.8174 -4.7021 0.0 0
M  V30 2 C 5.0253 -3.7239 0.0 0
M  V30 3 F 4.0471 -3.516 0.0 0
M  V30 4 F 5.2332 -2.7458 0.0 0
M  V30 5 O 6.0034 -3.9318 0.0 0
M  V30 6 C 6.6726 -3.1887 0.0 0
M  V30 7 C 6.3636 -2.2376 0.0 0
M  V30 8 C 7.6507 -3.3966 0.0 0
M  V30 9 C 7.0327 -1.4945 0.0 0
M  V30 10 C 8.3198 -2.6534 0.0 0
M  V30 11 C 8.0108 -1.7024 0.0 0
M  V30 12 C 6.9282 -0.5 0.0 0
M  V30 13 N 8.5108 -0.8364 0.0 0
M  V30 14 C 7.8417 -0.0932 0.0 0
M  V30 15 C 6.0621 0.0 0.0 0
M  V30 16 C 9.5054 -0.7318 0.0 0
M  V30 17 C 8.0496 0.8848 0.0 0
M  V30 18 C 5.1961 -0.5 0.0 0
M  V30 19 O 10.0931 -1.5408 0.0 0
M  V30 20 C 9.9121 0.1816 0.0 0
M  V30 21 C 4.3301 0.0 0.0 0
M  V30 22 C 5.1961 -1.4999 0.0 0
M  V30 23 C 10.9066 0.2861 0.0 0
M  V30 24 C 9.3243 0.9906 0.0 0
M  V30 25 C 3.4641 -0.5 0.0 0
M  V30 26 C 4.3301 -1.9999 0.0 0
M  V30 27 C 11.3133 1.1997 0.0 0
M  V30 28 C 9.731 1.9042 0.0 0
M  V30 29 O 2.598 0.0 0.0 0
M  V30 30 C 3.4641 -1.4999 0.0 0
M  V30 31 C 10.7256 2.0087 0.0 0
M  V30 32 C 1.732 -0.5 0.0 0 CFG=2
M  V30 33 O 11.1323 2.9223 0.0 0
M  V30 34 C 0.866 0.0 0.0 0
M  V30 35 C 1.732 -1.5 0.0 0
M  V30 36 C 10.5445 3.7313 0.0 0
M  V30 37 O 0.866 1.0 0.0 0
M  V30 38 O 0.0 -0.5 0.0 0
M  V30 END ATOM
M  V30 BEGIN BOND
M  V30 1 1 1 2
M  V30 2 1 2 3
M  V30 3 1 2 4
M  V30 4 1 2 5
M  V30 5 1 5 6
M  V30 6 2 6 7
M  V30 7 1 6 8
M  V30 8 1 7 9
M  V30 9 2 8 10
M  V30 10 2 9 11
M  V30 11 1 9 12
M  V30 12 1 11 13
M  V30 13 2 12 14
M  V30 14 1 12 15
M  V30 15 1 13 16
M  V30 16 1 14 17
M  V30 17 1 15 18
M  V30 18 2 16 19
M  V30 19 1 16 20
M  V30 20 2 18 21
M  V30 21 1 18 22
M  V30 22 2 20 23
M  V30 23 1 20 24
M  V30 24 1 21 25
M  V30 25 2 22 26
M  V30 26 1 23 27
M  V30 27 2 24 28
M  V30 28 1 25 29
M  V30 29 2 25 30
M  V30 30 2 27 31
M  V30 31 1 29 32
M  V30 32 1 31 33
M  V30 33 1 32 34
M  V30 34 1 32 35 CFG=1
M  V30 35 1 33 36
M  V30 36 2 34 37
M  V30 37 1 34 38
M  V30 38 1 10 11
M  V30 39 1 13 14
M  V30 40 1 26 30
M  V30 41 1 28 31
M  V30 END BOND
M  V30 BEGIN COLLECTION
M  V30 MDLV30/STEABS ATOMS=(1 32)
M  V30 END COLLECTION
M  V30 END CTAB
M  END
>  <Molecule ChEMBL ID>
CHEMBL179330

>  <Smiles>
COc1ccc(C(=O)n2c(C)c(Cc3cccc(O[C@@H](C)C(=O)O)c3)c3cc(OC(F)(F)F)ccc32)cc1

>  <IC50_nM>
1

>  <Assay Description>
Displacement of [3H2]nTZD3 from human recombinant GST-fused PPARgamma expressed in Escherichia coli by scintillation proximity assay

$$$$
CHEMBL3678086
Actelion Java MolfileCreator 2.0

  0  0  0  0  0  0              0 V3000
M  V30 BEGIN CTAB
M  V30 COUNTS 30 33 0 0 0
M  V30 BEGIN ATOM
M  V30 1 F 7.9402 4.1621 0.0 0
M  V30 2 C 8.6094 3.419 0.0 0
M  V30 3 C 8.3003 2.4679 0.0 0
M  V30 4 C 9.5875 3.6269 0.0 0
M  V30 5 C 8.9695 1.7248 0.0 0
M  V30 6 C 7.3222 2.26 0.0 0
M  V30 7 C 10.2566 2.8838 0.0 0
M  V30 8 C 9.9476 1.9327 0.0 0
M  V30 9 N 7.0132 1.309 0.0 0
M  V30 10 F 11.2348 3.0917 0.0 0
M  V30 11 C 6.0621 0.9999 0.0 0
M  V30 12 C 7.601 0.5 0.0 0
M  V30 13 C 6.0621 0.0 0.0 0
M  V30 14 C 5.1961 1.4999 0.0 0
M  V30 15 C 7.0132 -0.309 0.0 0
M  V30 16 C 5.1961 -0.5 0.0 0
M  V30 17 C 4.3301 0.9999 0.0 0
M  V30 18 C 4.3301 0.0 0.0 0
M  V30 19 C 3.4641 -0.5 0.0 0
M  V30 20 O 3.4641 -1.5 0.0 0
M  V30 21 N 2.598 0.0 0.0 0
M  V30 22 C 1.732 -0.5 0.0 0 CFG=2
M  V30 23 C 1.732 -1.5 0.0 0
M  V30 24 C 0.866 0.0 0.0 0
M  V30 25 C 0.866 -1.9999 0.0 0
M  V30 26 C 2.598 -2.0 0.0 0
M  V30 27 C 0.0 -0.5 0.0 0
M  V30 28 C 0.866 -2.9999 0.0 0
M  V30 29 C 2.598 -3.0 0.0 0
M  V30 30 C 1.732 -3.5 0.0 0
M  V30 END ATOM
M  V30 BEGIN BOND
M  V30 1 1 1 2
M  V30 2 2 2 3
M  V30 3 1 2 4
M  V30 4 1 3 5
M  V30 5 1 3 6
M  V30 6 2 4 7
M  V30 7 2 5 8
M  V30 8 1 6 9
M  V30 9 1 7 10
M  V30 10 1 9 11
M  V30 11 1 9 12
M  V30 12 2 11 13
M  V30 13 1 11 14
M  V30 14 2 12 15
M  V30 15 1 13 16
M  V30 16 2 14 17
M  V30 17 2 16 18
M  V30 18 1 18 19
M  V30 19 2 19 20
M  V30 20 1 19 21
M  V30 21 1 22 21 CFG=3
M  V30 22 1 22 23
M  V30 23 1 22 24
M  V30 24 2 23 25
M  V30 25 1 23 26
M  V30 26 1 24 27
M  V30 27 1 25 28
M  V30 28 2 26 29
M  V30 29 2 28 30
M  V30 30 1 7 8
M  V30 31 1 13 15
M  V30 32 1 17 18
M  V30 33 1 29 30
M  V30 END BOND
M  V30 BEGIN COLLECTION
M  V30 MDLV30/STERAC1 ATOMS=(1 22)
M  V30 END COLLECTION
M  V30 END CTAB
M  END
>  <Molecule ChEMBL ID>
CHEMBL3678086

>  <Smiles>
CCC(NC(=O)c1ccc2c(ccn2Cc2ccc(F)cc2F)c1)c1ccccc1

>  <IC50_nM>
1

>  <Assay Description>
Lanthascreen Competitive Binding Assay: The assay was performed according to manufacturer protocol. A mixture of 5 nM GST-PPARG-LBD, 5 nM Tb-GST-antibody, 5 nM Fluormone Pan- PPAR Green, and serial dilutions of the experimental compound, beginning at 10 ׬� downwards, was added to wells of black 384-well low- volume plates (Greiner) to a total volume of 18 xL. All dilutions were made in TR-FRET assay buffer C. DMSO at 2% final concentration was used as a no-ligand control. Experiment was performed in triplicate, and incubated for 2 hours in the dark prior to assay read in Perkin Elmer ViewLux ultra HTS microplate reader. FRET signal was measured by excitation at 340 nm and emission at 520 nm for fluorescein and 490 nm for terbium.

$$$$
CHEMBL3699353
Actelion Java MolfileCreator 2.0

  0  0  0  0  0  0              0 V3000
M  V30 BEGIN CTAB
M  V30 COUNTS 42 46 0 0 0
M  V30 BEGIN ATOM
M  V30 1 F 3.3301 1.0 0.0 0
M  V30 2 C 4.3301 0.9999 0.0 0
M  V30 3 F 4.3301 1.9999 0.0 0
M  V30 4 F 5.3301 0.9999 0.0 0
M  V30 5 C 4.3301 0.0 0.0 0
M  V30 6 C 3.4641 -0.5 0.0 0
M  V30 7 C 5.1961 -0.5 0.0 0
M  V30 8 C 3.4641 -1.5 0.0 0
M  V30 9 C 2.598 0.0 0.0 0 CFG=2
M  V30 10 C 5.1961 -1.5 0.0 0
M  V30 11 C 4.3301 -2.0 0.0 0
M  V30 12 N 1.732 -0.5 0.0 0
M  V30 13 C 2.598 1.0 0.0 0
M  V30 14 C 0.866 0.0 0.0 0
M  V30 15 O 0.866 1.0 0.0 0
M  V30 16 C 0.0 -0.5 0.0 0
M  V30 17 C 0.0 -1.4999 0.0 0
M  V30 18 C -0.866 0.0 0.0 0
M  V30 19 C -0.866 -1.9999 0.0 0
M  V30 20 C -1.732 -0.4999 0.0 0
M  V30 21 C -1.732 -1.4999 0.0 0
M  V30 22 C -1.0739 -2.9781 0.0 0
M  V30 23 N -2.4751 -2.1691 0.0 0
M  V30 24 C -2.0684 -3.0826 0.0 0
M  V30 25 C -0.4048 -3.7212 0.0 0
M  V30 26 C -3.4533 -1.9612 0.0 0
M  V30 27 C -2.5684 -3.9487 0.0 0
M  V30 28 C -4.1224 -2.7043 0.0 0
M  V30 29 C -5.1006 -2.4964 0.0 0
M  V30 30 C -3.8134 -3.6554 0.0 0
M  V30 31 C -5.7697 -3.2395 0.0 0
M  V30 32 C -4.4825 -4.3985 0.0 0
M  V30 33 C -5.4607 -4.1906 0.0 0
M  V30 34 C -6.1298 -4.9337 0.0 0
M  V30 35 C -7.108 -4.7258 0.0 0
M  V30 36 C -5.8208 -5.8848 0.0 0
M  V30 37 C -7.417 -3.7748 0.0 0
M  V30 38 C -7.7771 -5.469 0.0 0
M  V30 39 C -6.4899 -6.6279 0.0 0
M  V30 40 O -6.7478 -3.0316 0.0 0
M  V30 41 O -8.3951 -3.5669 0.0 0
M  V30 42 C -7.4681 -6.42 0.0 0
M  V30 END ATOM
M  V30 BEGIN BOND
M  V30 1 1 1 2
M  V30 2 1 2 3
M  V30 3 1 2 4
M  V30 4 1 2 5
M  V30 5 2 5 6
M  V30 6 1 5 7
M  V30 7 1 6 8
M  V30 8 1 6 9
M  V30 9 2 7 10
M  V30 10 2 8 11
M  V30 11 1 9 12
M  V30 12 1 9 13 CFG=3
M  V30 13 1 12 14
M  V30 14 2 14 15
M  V30 15 1 14 16
M  V30 16 2 16 17
M  V30 17 1 16 18
M  V30 18 1 17 19
M  V30 19 2 18 20
M  V30 20 2 19 21
M  V30 21 1 19 22
M  V30 22 1 21 23
M  V30 23 2 22 24
M  V30 24 1 22 25
M  V30 25 1 23 26
M  V30 26 1 24 27
M  V30 27 1 26 28
M  V30 28 2 28 29
M  V30 29 1 28 30
M  V30 30 1 29 31
M  V30 31 2 30 32
M  V30 32 2 31 33
M  V30 33 1 33 34
M  V30 34 2 34 35
M  V30 35 1 34 36
M  V30 36 1 35 37
M  V30 37 1 35 38
M  V30 38 2 36 39
M  V30 39 2 37 40
M  V30 40 1 37 41
M  V30 41 2 38 42
M  V30 42 1 10 11
M  V30 43 1 20 21
M  V30 44 1 23 24
M  V30 45 1 32 33
M  V30 46 1 39 42
M  V30 END BOND
M  V30 BEGIN COLLECTION
M  V30 MDLV30/STEABS ATOMS=(1 9)
M  V30 END COLLECTION
M  V30 END CTAB
M  END
>  <Molecule ChEMBL ID>
CHEMBL3699353

>  <Smiles>
Cc1c(C)n(Cc2ccc(-c3ccccc3C(=O)O)cc2)c2ccc(C(=O)N[C@H](C)c3ccccc3C(F)(F)F)cc12

>  <IC50_nM>
1

>  <Assay Description>
Lanthascreen Competitive Binding Assay: The assay was performed according to manufacturer protocol. A mixture of nM GST-PPARG-LBD, 5 nM Tb-GST-antibody, 5 nM Fluormone Pan-PPAR Green, and serial dilutions of the experimental compound, beginning at 10 ׬M downwards, was added to wells of black 384-well low-volume plates (Greiner) to a total volume of 18 ׬L. All dilutions were made in TR-FRET assay buffer C. DMSO at 2% final concentration was used as a no-ligand control. Experiment was performed in triplicate, and incubated for 2 hours in the dark prior to assay read in Perkin Elmer ViewLux ultra HTS microplate reader. FRET signal was measured by excitation at 340 nm and emission at 520 nm for fluorescein and 490 nm for terbium. Fold change over DMSO was calculated using GraphPad Prism Software (La Jolla, Calif.) by calculating 520 nm/490 nm ratio. Graphs were plotted as fold change of FRET signal for compound treatment over DMSO-only control.

$$$$
CHEMBL3699398
Actelion Java MolfileCreator 2.0

  0  0  0  0  0  0              0 V3000
M  V30 BEGIN CTAB
M  V30 COUNTS 39 43 0 0 0
M  V30 BEGIN ATOM
M  V30 1 Br 4.3301 0.9999 0.0 0
M  V30 2 C 4.3301 0.0 0.0 0
M  V30 3 C 3.4641 -0.5 0.0 0
M  V30 4 C 5.1961 -0.5 0.0 0
M  V30 5 C 3.4641 -1.5 0.0 0
M  V30 6 C 2.598 0.0 0.0 0 CFG=1
M  V30 7 C 5.1961 -1.5 0.0 0
M  V30 8 C 4.3301 -2.0 0.0 0
M  V30 9 N 1.732 -0.5 0.0 0
M  V30 10 C 2.598 1.0 0.0 0
M  V30 11 C 0.866 0.0 0.0 0
M  V30 12 O 0.866 1.0 0.0 0
M  V30 13 C 0.0 -0.5 0.0 0
M  V30 14 C 0.0 -1.4999 0.0 0
M  V30 15 C -0.866 0.0 0.0 0
M  V30 16 C -0.866 -1.9999 0.0 0
M  V30 17 C -1.732 -0.4999 0.0 0
M  V30 18 C -1.732 -1.4999 0.0 0
M  V30 19 C -1.0739 -2.9781 0.0 0
M  V30 20 N -2.4751 -2.1691 0.0 0
M  V30 21 C -2.0684 -3.0826 0.0 0
M  V30 22 C -0.4048 -3.7212 0.0 0
M  V30 23 C -3.4533 -1.9612 0.0 0
M  V30 24 C -2.5684 -3.9487 0.0 0
M  V30 25 C -4.1224 -2.7043 0.0 0
M  V30 26 C -5.1006 -2.4964 0.0 0
M  V30 27 C -3.8134 -3.6554 0.0 0
M  V30 28 C -5.7697 -3.2395 0.0 0
M  V30 29 C -4.4825 -4.3985 0.0 0
M  V30 30 C -5.4607 -4.1906 0.0 0
M  V30 31 C -6.1298 -4.9337 0.0 0
M  V30 32 C -7.108 -4.7258 0.0 0
M  V30 33 C -5.8208 -5.8848 0.0 0
M  V30 34 C -7.417 -3.7748 0.0 0
M  V30 35 C -7.7771 -5.469 0.0 0
M  V30 36 C -6.4899 -6.6279 0.0 0
M  V30 37 O -6.7478 -3.0316 0.0 0
M  V30 38 O -8.3951 -3.5669 0.0 0
M  V30 39 C -7.4681 -6.42 0.0 0
M  V30 END ATOM
M  V30 BEGIN BOND
M  V30 1 1 1 2
M  V30 2 2 2 3
M  V30 3 1 2 4
M  V30 4 1 3 5
M  V30 5 1 3 6
M  V30 6 2 4 7
M  V30 7 2 5 8
M  V30 8 1 6 9
M  V30 9 1 6 10 CFG=1
M  V30 10 1 9 11
M  V30 11 2 11 12
M  V30 12 1 11 13
M  V30 13 2 13 14
M  V30 14 1 13 15
M  V30 15 1 14 16
M  V30 16 2 15 17
M  V30 17 2 16 18
M  V30 18 1 16 19
M  V30 19 1 18 20
M  V30 20 2 19 21
M  V30 21 1 19 22
M  V30 22 1 20 23
M  V30 23 1 21 24
M  V30 24 1 23 25
M  V30 25 2 25 26
M  V30 26 1 25 27
M  V30 27 1 26 28
M  V30 28 2 27 29
M  V30 29 2 28 30
M  V30 30 1 30 31
M  V30 31 2 31 32
M  V30 32 1 31 33
M  V30 33 1 32 34
M  V30 34 1 32 35
M  V30 35 2 33 36
M  V30 36 2 34 37
M  V30 37 1 34 38
M  V30 38 2 35 39
M  V30 39 1 7 8
M  V30 40 1 17 18
M  V30 41 1 20 21
M  V30 42 1 29 30
M  V30 43 1 36 39
M  V30 END BOND
M  V30 BEGIN COLLECTION
M  V30 MDLV30/STEABS ATOMS=(1 6)
M  V30 END COLLECTION
M  V30 END CTAB
M  END
>  <Molecule ChEMBL ID>
CHEMBL3699398

>  <Smiles>
Cc1c(C)n(Cc2ccc(-c3ccccc3C(=O)O)cc2)c2ccc(C(=O)N[C@@H](C)c3ccccc3Br)cc12

>  <IC50_nM>
1

>  <Assay Description>
Lanthascreen Competitive Binding Assay: The assay was performed according to manufacturer protocol. A mixture of nM GST-PPARG-LBD, 5 nM Tb-GST-antibody, 5 nM Fluormone Pan-PPAR Green, and serial dilutions of the experimental compound, beginning at 10 ׬M downwards, was added to wells of black 384-well low-volume plates (Greiner) to a total volume of 18 ׬L. All dilutions were made in TR-FRET assay buffer C. DMSO at 2% final concentration was used as a no-ligand control. Experiment was performed in triplicate, and incubated for 2 hours in the dark prior to assay read in Perkin Elmer ViewLux ultra HTS microplate reader. FRET signal was measured by excitation at 340 nm and emission at 520 nm for fluorescein and 490 nm for terbium. Fold change over DMSO was calculated using GraphPad Prism Software (La Jolla, Calif.) by calculating 520 nm/490 nm ratio. Graphs were plotted as fold change of FRET signal for compound treatment over DMSO-only control.

$$$$
CHEMBL3699423
Actelion Java MolfileCreator 2.0

  0  0  0  0  0  0              0 V3000
M  V30 BEGIN CTAB
M  V30 COUNTS 39 43 0 0 0
M  V30 BEGIN ATOM
M  V30 1 Br 6.0621 0.0 0.0 0
M  V30 2 C 5.1961 -0.5 0.0 0
M  V30 3 C 4.3301 0.0 0.0 0
M  V30 4 C 5.1961 -1.4999 0.0 0
M  V30 5 C 3.4641 -0.5 0.0 0
M  V30 6 C 4.3301 -1.9999 0.0 0
M  V30 7 C 3.4641 -1.4999 0.0 0
M  V30 8 C 2.598 0.0 0.0 0 CFG=2
M  V30 9 N 1.732 -0.5 0.0 0
M  V30 10 C 2.598 1.0 0.0 0
M  V30 11 C 0.866 0.0 0.0 0
M  V30 12 O 0.866 1.0 0.0 0
M  V30 13 C 0.0 -0.5 0.0 0
M  V30 14 C 0.0 -1.4999 0.0 0
M  V30 15 C -0.866 0.0 0.0 0
M  V30 16 C -0.866 -1.9999 0.0 0
M  V30 17 C -1.732 -0.4999 0.0 0
M  V30 18 C -1.732 -1.4999 0.0 0
M  V30 19 C -1.0739 -2.9781 0.0 0
M  V30 20 N -2.4751 -2.1691 0.0 0
M  V30 21 C -2.0684 -3.0826 0.0 0
M  V30 22 C -0.4048 -3.7212 0.0 0
M  V30 23 C -3.4533 -1.9612 0.0 0
M  V30 24 C -2.5684 -3.9487 0.0 0
M  V30 25 C -4.1224 -2.7043 0.0 0
M  V30 26 C -5.1006 -2.4964 0.0 0
M  V30 27 C -3.8134 -3.6554 0.0 0
M  V30 28 C -5.7697 -3.2395 0.0 0
M  V30 29 C -4.4825 -4.3985 0.0 0
M  V30 30 C -5.4607 -4.1906 0.0 0
M  V30 31 C -6.1298 -4.9337 0.0 0
M  V30 32 C -7.108 -4.7258 0.0 0
M  V30 33 C -5.8208 -5.8848 0.0 0
M  V30 34 C -7.417 -3.7748 0.0 0
M  V30 35 C -7.7771 -5.469 0.0 0
M  V30 36 C -6.4899 -6.6279 0.0 0
M  V30 37 O -6.7478 -3.0316 0.0 0
M  V30 38 O -8.3951 -3.5669 0.0 0
M  V30 39 C -7.4681 -6.42 0.0 0
M  V30 END ATOM
M  V30 BEGIN BOND
M  V30 1 1 1 2
M  V30 2 2 2 3
M  V30 3 1 2 4
M  V30 4 1 3 5
M  V30 5 2 4 6
M  V30 6 2 5 7
M  V30 7 1 5 8
M  V30 8 1 8 9
M  V30 9 1 8 10 CFG=3
M  V30 10 1 9 11
M  V30 11 2 11 12
M  V30 12 1 11 13
M  V30 13 2 13 14
M  V30 14 1 13 15
M  V30 15 1 14 16
M  V30 16 2 15 17
M  V30 17 2 16 18
M  V30 18 1 16 19
M  V30 19 1 18 20
M  V30 20 2 19 21
M  V30 21 1 19 22
M  V30 22 1 20 23
M  V30 23 1 21 24
M  V30 24 1 23 25
M  V30 25 2 25 26
M  V30 26 1 25 27
M  V30 27 1 26 28
M  V30 28 2 27 29
M  V30 29 2 28 30
M  V30 30 1 30 31
M  V30 31 2 31 32
M  V30 32 1 31 33
M  V30 33 1 32 34
M  V30 34 1 32 35
M  V30 35 2 33 36
M  V30 36 2 34 37
M  V30 37 1 34 38
M  V30 38 2 35 39
M  V30 39 1 6 7
M  V30 40 1 17 18
M  V30 41 1 20 21
M  V30 42 1 29 30
M  V30 43 1 36 39
M  V30 END BOND
M  V30 BEGIN COLLECTION
M  V30 MDLV30/STEABS ATOMS=(1 8)
M  V30 END COLLECTION
M  V30 END CTAB
M  END
>  <Molecule ChEMBL ID>
CHEMBL3699423

>  <Smiles>
Cc1c(C)n(Cc2ccc(-c3ccccc3C(=O)O)cc2)c2ccc(C(=O)N[C@H](C)c3cccc(Br)c3)cc12

>  <IC50_nM>
1

>  <Assay Description>
Lanthascreen Competitive Binding Assay: The assay was performed according to manufacturer protocol. A mixture of nM GST-PPARG-LBD, 5 nM Tb-GST-antibody, 5 nM Fluormone Pan-PPAR Green, and serial dilutions of the experimental compound, beginning at 10 ׬M downwards, was added to wells of black 384-well low-volume plates (Greiner) to a total volume of 18 ׬L. All dilutions were made in TR-FRET assay buffer C. DMSO at 2% final concentration was used as a no-ligand control. Experiment was performed in triplicate, and incubated for 2 hours in the dark prior to assay read in Perkin Elmer ViewLux ultra HTS microplate reader. FRET signal was measured by excitation at 340 nm and emission at 520 nm for fluorescein and 490 nm for terbium. Fold change over DMSO was calculated using GraphPad Prism Software (La Jolla, Calif.) by calculating 520 nm/490 nm ratio. Graphs were plotted as fold change of FRET signal for compound treatment over DMSO-only control.

$$$$
CHEMBL3695889
Actelion Java MolfileCreator 2.0

  0  0  0  0  0  0              0 V3000
M  V30 BEGIN CTAB
M  V30 COUNTS 38 42 0 0 0
M  V30 BEGIN ATOM
M  V30 1 O 5.1961 -0.7499 0.0 0
M  V30 2 C 3.8971 0.0 0.0 0
M  V30 3 N 2.598 -0.7499 0.0 0
M  V30 4 C 3.8971 1.5 0.0 0
M  V30 5 C 1.299 0.0 0.0 0 CFG=1
M  V30 6 C 2.598 2.25 0.0 0
M  V30 7 C 5.1961 2.25 0.0 0
M  V30 8 C 0.0 -0.7499 0.0 0
M  V30 9 C 1.299 1.5 0.0 0
M  V30 10 C 2.598 3.75 0.0 0
M  V30 11 C 5.1961 3.75 0.0 0
M  V30 12 C 0.0 -2.2499 0.0 0
M  V30 13 C -1.299 0.0 0.0 0
M  V30 14 C 3.8971 4.5 0.0 0
M  V30 15 C 1.4833 4.7536 0.0 0
M  V30 16 C -1.299 -2.9999 0.0 0
M  V30 17 C -2.598 -0.7499 0.0 0
M  V30 18 N 3.5852 5.9672 0.0 0
M  V30 19 C 2.0934 6.124 0.0 0
M  V30 20 C 0.0161 4.4418 0.0 0
M  V30 21 C -2.598 -2.2499 0.0 0
M  V30 22 C -1.299 -4.4999 0.0 0
M  V30 23 C 4.5889 7.0819 0.0 0
M  V30 24 C 1.3434 7.423 0.0 0
M  V30 25 C 0.0 -5.2499 0.0 0
M  V30 26 C -2.598 -5.2499 0.0 0
M  V30 27 C 4.1254 8.5085 0.0 0
M  V30 28 C 5.1291 9.6232 0.0 0
M  V30 29 C 2.6581 8.8203 0.0 0
M  V30 30 C 4.6655 11.0498 0.0 0
M  V30 31 C 2.1946 10.2469 0.0 0
M  V30 32 C 3.1983 11.3616 0.0 0
M  V30 33 C 2.7348 12.7882 0.0 0
M  V30 34 C 3.7385 13.9029 0.0 0
M  V30 35 C 1.2676 13.1001 0.0 0
M  V30 36 C 3.275 15.3295 0.0 0
M  V30 37 C 0.804 14.5267 0.0 0
M  V30 38 C 1.8077 15.6414 0.0 0
M  V30 END ATOM
M  V30 BEGIN BOND
M  V30 1 2 1 2
M  V30 2 1 2 3
M  V30 3 1 2 4
M  V30 4 1 3 5
M  V30 5 2 4 6
M  V30 6 1 4 7
M  V30 7 1 5 8
M  V30 8 1 5 9 CFG=1
M  V30 9 1 6 10
M  V30 10 2 7 11
M  V30 11 2 8 12
M  V30 12 1 8 13
M  V30 13 2 10 14
M  V30 14 1 10 15
M  V30 15 1 12 16
M  V30 16 2 13 17
M  V30 17 1 14 18
M  V30 18 2 15 19
M  V30 19 1 15 20
M  V30 20 2 16 21
M  V30 21 1 16 22
M  V30 22 1 18 23
M  V30 23 1 19 24
M  V30 24 1 22 25
M  V30 25 1 22 26
M  V30 26 1 23 27
M  V30 27 2 27 28
M  V30 28 1 27 29
M  V30 29 1 28 30
M  V30 30 2 29 31
M  V30 31 2 30 32
M  V30 32 1 32 33
M  V30 33 2 33 34
M  V30 34 1 33 35
M  V30 35 1 34 36
M  V30 36 2 35 37
M  V30 37 2 36 38
M  V30 38 1 11 14
M  V30 39 1 17 21
M  V30 40 1 18 19
M  V30 41 1 31 32
M  V30 42 1 37 38
M  V30 END BOND
M  V30 BEGIN COLLECTION
M  V30 MDLV30/STEABS ATOMS=(1 5)
M  V30 END COLLECTION
M  V30 END CTAB
M  END
>  <Molecule ChEMBL ID>
CHEMBL3695889

>  <Smiles>
Cc1c(C)n(Cc2ccc(-c3ccccc3)cc2)c2ccc(C(=O)N[C@H](C)c3cccc(C(C)C)c3)cc12

>  <IC50_nM>
1

>  <Assay Description>
Lanthascreen Competitive Binding Assay: The assay was performed according to manufacturer protocol. A mixture of nM GST-PPARG-LBD, 5 nM Tb-GST-antibody, 5 nM Fluormone Pan-PPAR Green, and serial dilutions of the experimental compound, beginning at 10 ׬M downwards, was added to wells of black 384-well low-volume plates (Greiner) to a total volume of 18 ׬L. All dilutions were made in TR-FRET assay buffer C. DMSO at 2% final concentration was used as a no-ligand control. Experiment was performed in triplicate, and incubated for 2 hours in the dark prior to assay read in Perkin Elmer ViewLux ultra HTS microplate reader. FRET signal was measured by excitation at 340 nm and emission at 520 nm for fluorescein and 490 nm for terbium. Fold change over DMSO was calculated using GraphPad Prism Software (La Jolla, Calif.) by calculating 520 nm/490 nm ratio. Graphs were plotted as fold change of FRET signal for compound treatment over DMSO-only control.

$$$$
CHEMBL3699415
Actelion Java MolfileCreator 2.0

  0  0  0  0  0  0              0 V3000
M  V30 BEGIN CTAB
M  V30 COUNTS 41 46 0 0 0
M  V30 BEGIN ATOM
M  V30 1 O 11.8592 -3.5669 0.0 0
M  V30 2 C 10.8811 -3.7748 0.0 0
M  V30 3 O 10.212 -3.0316 0.0 0
M  V30 4 C 10.5721 -4.7258 0.0 0
M  V30 5 C 9.5939 -4.9337 0.0 0
M  V30 6 C 11.2412 -5.469 0.0 0
M  V30 7 C 8.9248 -4.1906 0.0 0
M  V30 8 C 9.2849 -5.8848 0.0 0
M  V30 9 C 10.9322 -6.42 0.0 0
M  V30 10 C 9.2338 -3.2395 0.0 0
M  V30 11 C 7.9466 -4.3985 0.0 0
M  V30 12 C 9.954 -6.6279 0.0 0
M  V30 13 C 8.5647 -2.4964 0.0 0
M  V30 14 C 7.2775 -3.6554 0.0 0
M  V30 15 C 7.5865 -2.7043 0.0 0
M  V30 16 C 6.9174 -1.9612 0.0 0
M  V30 17 N 5.9392 -2.1691 0.0 0
M  V30 18 C 5.1961 -1.4999 0.0 0
M  V30 19 C 5.5325 -3.0826 0.0 0
M  V30 20 C 4.3301 -1.9999 0.0 0
M  V30 21 C 5.1961 -0.4999 0.0 0
M  V30 22 C 4.538 -2.9781 0.0 0
M  V30 23 C 6.0325 -3.9487 0.0 0
M  V30 24 C 3.4641 -1.5 0.0 0
M  V30 25 C 4.3301 0.0 0.0 0
M  V30 26 C 3.8689 -3.7212 0.0 0
M  V30 27 C 3.4641 -0.5 0.0 0
M  V30 28 C 2.598 0.0 0.0 0
M  V30 29 O 2.598 1.0 0.0 0
M  V30 30 N 1.732 -0.5 0.0 0
M  V30 31 C 0.866 0.0 0.0 0 CFG=2
M  V30 32 C 0.866 1.0 0.0 0
M  V30 33 C 0.0 -0.5 0.0 0
M  V30 34 N 1.732 1.4999 0.0 0
M  V30 35 C 0.0 1.4999 0.0 0
M  V30 36 C 1.732 2.5 0.0 0
M  V30 37 C 0.0 2.5 0.0 0
M  V30 38 C 0.866 3.0 0.0 0
M  V30 39 C 2.598 3.0 0.0 0
M  V30 40 C 3.598 3.0 0.0 0
M  V30 41 C 3.098 3.866 0.0 0
M  V30 END ATOM
M  V30 BEGIN BOND
M  V30 1 2 1 2
M  V30 2 1 2 3
M  V30 3 1 2 4
M  V30 4 2 4 5
M  V30 5 1 4 6
M  V30 6 1 5 7
M  V30 7 1 5 8
M  V30 8 2 6 9
M  V30 9 2 7 10
M  V30 10 1 7 11
M  V30 11 2 8 12
M  V30 12 1 10 13
M  V30 13 2 11 14
M  V30 14 2 13 15
M  V30 15 1 15 16
M  V30 16 1 16 17
M  V30 17 1 17 18
M  V30 18 1 17 19
M  V30 19 2 18 20
M  V30 20 1 18 21
M  V30 21 2 19 22
M  V30 22 1 19 23
M  V30 23 1 20 24
M  V30 24 2 21 25
M  V30 25 1 22 26
M  V30 26 2 24 27
M  V30 27 1 27 28
M  V30 28 2 28 29
M  V30 29 1 28 30
M  V30 30 1 30 31
M  V30 31 1 31 32
M  V30 32 1 31 33 CFG=1
M  V30 33 2 32 34
M  V30 34 1 32 35
M  V30 35 1 34 36
M  V30 36 2 35 37
M  V30 37 2 36 38
M  V30 38 1 36 39
M  V30 39 1 39 40
M  V30 40 1 39 41
M  V30 41 1 9 12
M  V30 42 1 14 15
M  V30 43 1 20 22
M  V30 44 1 25 27
M  V30 45 1 37 38
M  V30 46 1 40 41
M  V30 END BOND
M  V30 BEGIN COLLECTION
M  V30 MDLV30/STERAC1 ATOMS=(1 31)
M  V30 END COLLECTION
M  V30 END CTAB
M  END
>  <Molecule ChEMBL ID>
CHEMBL3699415

>  <Smiles>
Cc1c(C)n(Cc2ccc(-c3ccccc3C(=O)O)cc2)c2ccc(C(=O)NC(C)c3cccc(C4CC4)n3)cc12

>  <IC50_nM>
1

>  <Assay Description>
Lanthascreen Competitive Binding Assay: The assay was performed according to manufacturer protocol. A mixture of nM GST-PPARG-LBD, 5 nM Tb-GST-antibody, 5 nM Fluormone Pan-PPAR Green, and serial dilutions of the experimental compound, beginning at 10 ׬M downwards, was added to wells of black 384-well low-volume plates (Greiner) to a total volume of 18 ׬L. All dilutions were made in TR-FRET assay buffer C. DMSO at 2% final concentration was used as a no-ligand control. Experiment was performed in triplicate, and incubated for 2 hours in the dark prior to assay read in Perkin Elmer ViewLux ultra HTS microplate reader. FRET signal was measured by excitation at 340 nm and emission at 520 nm for fluorescein and 490 nm for terbium. Fold change over DMSO was calculated using GraphPad Prism Software (La Jolla, Calif.) by calculating 520 nm/490 nm ratio. Graphs were plotted as fold change of FRET signal for compound treatment over DMSO-only control.

$$$$
CHEMBL3695901
Actelion Java MolfileCreator 2.0

  0  0  0  0  0  0              0 V3000
M  V30 BEGIN CTAB
M  V30 COUNTS 37 41 0 0 0
M  V30 BEGIN ATOM
M  V30 1 Br 9.0932 -3.0 0.0 0
M  V30 2 C 7.7942 -2.25 0.0 0
M  V30 3 C 7.7942 -0.75 0.0 0
M  V30 4 C 6.4951 -3.0 0.0 0
M  V30 5 C 6.4951 0.0 0.0 0
M  V30 6 C 5.1961 -2.25 0.0 0
M  V30 7 C 5.1961 -0.75 0.0 0
M  V30 8 C 3.8971 0.0 0.0 0
M  V30 9 N 2.598 -0.75 0.0 0
M  V30 10 C 4.6471 1.299 0.0 0
M  V30 11 C 3.1471 1.299 0.0 0
M  V30 12 C 1.299 0.0 0.0 0
M  V30 13 O 1.299 1.5 0.0 0
M  V30 14 C 0.0 -0.75 0.0 0
M  V30 15 C 0.0 -2.25 0.0 0
M  V30 16 C -1.299 0.0 0.0 0
M  V30 17 C -1.299 -3.0 0.0 0
M  V30 18 C -2.598 -0.75 0.0 0
M  V30 19 C -2.598 -2.25 0.0 0
M  V30 20 C -1.6109 -4.4672 0.0 0
M  V30 21 N -3.7127 -3.2536 0.0 0
M  V30 22 C -3.1026 -4.624 0.0 0
M  V30 23 C -0.6072 -5.5819 0.0 0
M  V30 24 C -5.18 -2.9418 0.0 0
M  V30 25 C -3.8526 -5.923 0.0 0
M  V30 26 C -6.1837 -4.0565 0.0 0
M  V30 27 C -7.6509 -3.7446 0.0 0
M  V30 28 C -5.7201 -5.4831 0.0 0
M  V30 29 C -8.6546 -4.8594 0.0 0
M  V30 30 C -6.7238 -6.5978 0.0 0
M  V30 31 C -8.1911 -6.2859 0.0 0
M  V30 32 C -9.1948 -7.4007 0.0 0
M  V30 33 C -10.662 -7.0888 0.0 0
M  V30 34 C -8.7312 -8.8272 0.0 0
M  V30 35 C -11.6657 -8.2035 0.0 0
M  V30 36 C -9.7349 -9.942 0.0 0
M  V30 37 C -11.2022 -9.6301 0.0 0
M  V30 END ATOM
M  V30 BEGIN BOND
M  V30 1 1 1 2
M  V30 2 2 2 3
M  V30 3 1 2 4
M  V30 4 1 3 5
M  V30 5 2 4 6
M  V30 6 2 5 7
M  V30 7 1 7 8
M  V30 8 1 8 9
M  V30 9 1 8 10
M  V30 10 1 8 11
M  V30 11 1 9 12
M  V30 12 2 12 13
M  V30 13 1 12 14
M  V30 14 2 14 15
M  V30 15 1 14 16
M  V30 16 1 15 17
M  V30 17 2 16 18
M  V30 18 2 17 19
M  V30 19 1 17 20
M  V30 20 1 19 21
M  V30 21 2 20 22
M  V30 22 1 20 23
M  V30 23 1 21 24
M  V30 24 1 22 25
M  V30 25 1 24 26
M  V30 26 2 26 27
M  V30 27 1 26 28
M  V30 28 1 27 29
M  V30 29 2 28 30
M  V30 30 2 29 31
M  V30 31 1 31 32
M  V30 32 2 32 33
M  V30 33 1 32 34
M  V30 34 1 33 35
M  V30 35 2 34 36
M  V30 36 2 35 37
M  V30 37 1 6 7
M  V30 38 1 18 19
M  V30 39 1 21 22
M  V30 40 1 30 31
M  V30 41 1 36 37
M  V30 END BOND
M  V30 END CTAB
M  END
>  <Molecule ChEMBL ID>
CHEMBL3695901

>  <Smiles>
Cc1c(C)n(Cc2ccc(-c3ccccc3)cc2)c2ccc(C(=O)NC(C)(C)c3ccc(Br)cc3)cc12

>  <IC50_nM>
1

>  <Assay Description>
Lanthascreen Competitive Binding Assay: The assay was performed according to manufacturer protocol. A mixture of nM GST-PPARG-LBD, 5 nM Tb-GST-antibody, 5 nM Fluormone Pan-PPAR Green, and serial dilutions of the experimental compound, beginning at 10 ׬M downwards, was added to wells of black 384-well low-volume plates (Greiner) to a total volume of 18 ׬L. All dilutions were made in TR-FRET assay buffer C. DMSO at 2% final concentration was used as a no-ligand control. Experiment was performed in triplicate, and incubated for 2 hours in the dark prior to assay read in Perkin Elmer ViewLux ultra HTS microplate reader. FRET signal was measured by excitation at 340 nm and emission at 520 nm for fluorescein and 490 nm for terbium. Fold change over DMSO was calculated using GraphPad Prism Software (La Jolla, Calif.) by calculating 520 nm/490 nm ratio. Graphs were plotted as fold change of FRET signal for compound treatment over DMSO-only control.

$$$$
CHEMBL452051
Actelion Java MolfileCreator 2.0

  0  0  0  0  0  0              0 V3000
M  V30 BEGIN CTAB
M  V30 COUNTS 37 40 0 0 0
M  V30 BEGIN ATOM
M  V30 1 Cl 6.0664 -5.852 0.0 0
M  V30 2 C 6.6542 -5.043 0.0 0
M  V30 3 C 7.6487 -5.1475 0.0 0
M  V30 4 C 6.2475 -4.1294 0.0 0
M  V30 5 C 8.2365 -4.3385 0.0 0
M  V30 6 C 6.8353 -3.3204 0.0 0
M  V30 7 C 7.8298 -3.4249 0.0 0
M  V30 8 C 8.4176 -2.6159 0.0 0
M  V30 9 O 9.4121 -2.7205 0.0 0
M  V30 10 C 8.0108 -1.7024 0.0 0
M  V30 11 C 8.5108 -0.8364 0.0 0
M  V30 12 C 7.0327 -1.4945 0.0 0
M  V30 13 C 7.8417 -0.0932 0.0 0
M  V30 14 C 9.489 -0.6284 0.0 0
M  V30 15 N 6.9282 -0.5 0.0 0
M  V30 16 C 6.2895 -2.1636 0.0 0
M  V30 17 C 8.1507 0.8577 0.0 0
M  V30 18 C 9.798 0.3225 0.0 0
M  V30 19 C 6.0621 0.0 0.0 0
M  V30 20 C 9.1289 1.0657 0.0 0
M  V30 21 C 5.1961 -0.5 0.0 0
M  V30 22 O 9.4379 2.0167 0.0 0
M  V30 23 C 4.3301 0.0 0.0 0
M  V30 24 C 5.1961 -1.4999 0.0 0
M  V30 25 C 8.7687 2.7599 0.0 0
M  V30 26 C 3.4641 -0.5 0.0 0
M  V30 27 C 4.3301 -1.9999 0.0 0
M  V30 28 F 8.0256 2.0907 0.0 0
M  V30 29 F 8.0996 3.503 0.0 0
M  V30 30 F 9.5119 3.429 0.0 0
M  V30 31 O 2.598 0.0 0.0 0
M  V30 32 C 3.4641 -1.4999 0.0 0
M  V30 33 C 1.732 -0.5 0.0 0 CFG=2
M  V30 34 C 0.866 0.0 0.0 0
M  V30 35 C 1.732 -1.5 0.0 0
M  V30 36 O 0.866 1.0 0.0 0
M  V30 37 O 0.0 -0.5 0.0 0
M  V30 END ATOM
M  V30 BEGIN BOND
M  V30 1 1 1 2
M  V30 2 2 2 3
M  V30 3 1 2 4
M  V30 4 1 3 5
M  V30 5 2 4 6
M  V30 6 2 5 7
M  V30 7 1 7 8
M  V30 8 2 8 9
M  V30 9 1 8 10
M  V30 10 1 10 11
M  V30 11 2 10 12
M  V30 12 2 11 13
M  V30 13 1 11 14
M  V30 14 1 12 15
M  V30 15 1 12 16
M  V30 16 1 13 17
M  V30 17 2 14 18
M  V30 18 1 15 19
M  V30 19 2 17 20
M  V30 20 1 19 21
M  V30 21 1 20 22
M  V30 22 2 21 23
M  V30 23 1 21 24
M  V30 24 1 22 25
M  V30 25 1 23 26
M  V30 26 2 24 27
M  V30 27 1 25 28
M  V30 28 1 25 29
M  V30 29 1 25 30
M  V30 30 1 26 31
M  V30 31 2 26 32
M  V30 32 1 31 33
M  V30 33 1 33 34
M  V30 34 1 33 35 CFG=1
M  V30 35 2 34 36
M  V30 36 1 34 37
M  V30 37 1 6 7
M  V30 38 1 13 15
M  V30 39 1 18 20
M  V30 40 1 27 32
M  V30 END BOND
M  V30 BEGIN COLLECTION
M  V30 MDLV30/STEABS ATOMS=(1 33)
M  V30 END COLLECTION
M  V30 END CTAB
M  END
>  <Molecule ChEMBL ID>
CHEMBL452051

>  <Smiles>
Cc1c(C(=O)c2ccc(Cl)cc2)c2ccc(OC(F)(F)F)cc2n1Cc1cccc(O[C@@H](C)C(=O)O)c1

>  <IC50_nM>
1

>  <Assay Description>
Displacement of [3H]2AD-5075 from GST-tagged human PPARgamma receptor expressed in Escherichia coli BL21

$$$$
CHEMBL3699398
Actelion Java MolfileCreator 2.0

  0  0  0  0  0  0              0 V3000
M  V30 BEGIN CTAB
M  V30 COUNTS 39 43 0 0 0
M  V30 BEGIN ATOM
M  V30 1 Br 4.3301 0.9999 0.0 0
M  V30 2 C 4.3301 0.0 0.0 0
M  V30 3 C 3.4641 -0.5 0.0 0
M  V30 4 C 5.1961 -0.5 0.0 0
M  V30 5 C 3.4641 -1.5 0.0 0
M  V30 6 C 2.598 0.0 0.0 0 CFG=1
M  V30 7 C 5.1961 -1.5 0.0 0
M  V30 8 C 4.3301 -2.0 0.0 0
M  V30 9 N 1.732 -0.5 0.0 0
M  V30 10 C 2.598 1.0 0.0 0
M  V30 11 C 0.866 0.0 0.0 0
M  V30 12 O 0.866 1.0 0.0 0
M  V30 13 C 0.0 -0.5 0.0 0
M  V30 14 C 0.0 -1.4999 0.0 0
M  V30 15 C -0.866 0.0 0.0 0
M  V30 16 C -0.866 -1.9999 0.0 0
M  V30 17 C -1.732 -0.4999 0.0 0
M  V30 18 C -1.732 -1.4999 0.0 0
M  V30 19 C -1.0739 -2.9781 0.0 0
M  V30 20 N -2.4751 -2.1691 0.0 0
M  V30 21 C -2.0684 -3.0826 0.0 0
M  V30 22 C -0.4048 -3.7212 0.0 0
M  V30 23 C -3.4533 -1.9612 0.0 0
M  V30 24 C -2.5684 -3.9487 0.0 0
M  V30 25 C -4.1224 -2.7043 0.0 0
M  V30 26 C -5.1006 -2.4964 0.0 0
M  V30 27 C -3.8134 -3.6554 0.0 0
M  V30 28 C -5.7697 -3.2395 0.0 0
M  V30 29 C -4.4825 -4.3985 0.0 0
M  V30 30 C -5.4607 -4.1906 0.0 0
M  V30 31 C -6.1298 -4.9337 0.0 0
M  V30 32 C -7.108 -4.7258 0.0 0
M  V30 33 C -5.8208 -5.8848 0.0 0
M  V30 34 C -7.417 -3.7748 0.0 0
M  V30 35 C -7.7771 -5.469 0.0 0
M  V30 36 C -6.4899 -6.6279 0.0 0
M  V30 37 O -6.7478 -3.0316 0.0 0
M  V30 38 O -8.3951 -3.5669 0.0 0
M  V30 39 C -7.4681 -6.42 0.0 0
M  V30 END ATOM
M  V30 BEGIN BOND
M  V30 1 1 1 2
M  V30 2 2 2 3
M  V30 3 1 2 4
M  V30 4 1 3 5
M  V30 5 1 3 6
M  V30 6 2 4 7
M  V30 7 2 5 8
M  V30 8 1 6 9
M  V30 9 1 6 10 CFG=1
M  V30 10 1 9 11
M  V30 11 2 11 12
M  V30 12 1 11 13
M  V30 13 2 13 14
M  V30 14 1 13 15
M  V30 15 1 14 16
M  V30 16 2 15 17
M  V30 17 2 16 18
M  V30 18 1 16 19
M  V30 19 1 18 20
M  V30 20 2 19 21
M  V30 21 1 19 22
M  V30 22 1 20 23
M  V30 23 1 21 24
M  V30 24 1 23 25
M  V30 25 2 25 26
M  V30 26 1 25 27
M  V30 27 1 26 28
M  V30 28 2 27 29
M  V30 29 2 28 30
M  V30 30 1 30 31
M  V30 31 2 31 32
M  V30 32 1 31 33
M  V30 33 1 32 34
M  V30 34 1 32 35
M  V30 35 2 33 36
M  V30 36 2 34 37
M  V30 37 1 34 38
M  V30 38 2 35 39
M  V30 39 1 7 8
M  V30 40 1 17 18
M  V30 41 1 20 21
M  V30 42 1 29 30
M  V30 43 1 36 39
M  V30 END BOND
M  V30 BEGIN COLLECTION
M  V30 MDLV30/STEABS ATOMS=(1 6)
M  V30 END COLLECTION
M  V30 END CTAB
M  END
>  <Molecule ChEMBL ID>
CHEMBL3699398

>  <Smiles>
Cc1c(C)n(Cc2ccc(-c3ccccc3C(=O)O)cc2)c2ccc(C(=O)N[C@@H](C)c3ccccc3Br)cc12

>  <IC50_nM>
1

>  <Assay Description>
Binding affinity to GST-tagged PPAR-gamma-LBD (unknown origin) after 2 hrs by Lantha screen assay using fluormone Pan-PPAR green probe

$$$$
CHEMBL3695821
Actelion Java MolfileCreator 2.0

  0  0  0  0  0  0              0 V3000
M  V30 BEGIN CTAB
M  V30 COUNTS 36 40 0 0 0
M  V30 BEGIN ATOM
M  V30 1 S 4.3776 -0.0932 0.0 0
M  V30 2 C 3.4641 -0.5 0.0 0
M  V30 3 C 5.0467 -0.8364 0.0 0
M  V30 4 C 3.5686 -1.4945 0.0 0
M  V30 5 C 2.598 0.0 0.0 0
M  V30 6 C 4.5467 -1.7024 0.0 0
M  V30 7 N 1.732 -0.5 0.0 0
M  V30 8 C 0.866 0.0 0.0 0
M  V30 9 O 0.866 1.0 0.0 0
M  V30 10 C 0.0 -0.5 0.0 0
M  V30 11 C 0.0 -1.4999 0.0 0
M  V30 12 C -0.866 0.0 0.0 0
M  V30 13 C -0.866 -1.9999 0.0 0
M  V30 14 C -1.732 -0.4999 0.0 0
M  V30 15 C -1.732 -1.4999 0.0 0
M  V30 16 C -1.0739 -2.9781 0.0 0
M  V30 17 N -2.4751 -2.1691 0.0 0
M  V30 18 C -2.0684 -3.0826 0.0 0
M  V30 19 C -0.4048 -3.7212 0.0 0
M  V30 20 C -3.4533 -1.9612 0.0 0
M  V30 21 C -2.5684 -3.9487 0.0 0
M  V30 22 C -4.1224 -2.7043 0.0 0
M  V30 23 C -5.1006 -2.4964 0.0 0
M  V30 24 C -3.8134 -3.6554 0.0 0
M  V30 25 C -5.7697 -3.2395 0.0 0
M  V30 26 C -4.4825 -4.3985 0.0 0
M  V30 27 C -5.4607 -4.1906 0.0 0
M  V30 28 C -6.1298 -4.9337 0.0 0
M  V30 29 C -7.108 -4.7258 0.0 0
M  V30 30 C -5.8208 -5.8848 0.0 0
M  V30 31 C -7.417 -3.7748 0.0 0
M  V30 32 C -7.7771 -5.469 0.0 0
M  V30 33 C -6.4899 -6.6279 0.0 0
M  V30 34 O -6.7478 -3.0316 0.0 0
M  V30 35 O -8.3951 -3.5669 0.0 0
M  V30 36 C -7.4681 -6.42 0.0 0
M  V30 END ATOM
M  V30 BEGIN BOND
M  V30 1 1 1 2
M  V30 2 1 1 3
M  V30 3 2 2 4
M  V30 4 1 2 5
M  V30 5 2 3 6
M  V30 6 1 5 7
M  V30 7 1 7 8
M  V30 8 2 8 9
M  V30 9 1 8 10
M  V30 10 2 10 11
M  V30 11 1 10 12
M  V30 12 1 11 13
M  V30 13 2 12 14
M  V30 14 2 13 15
M  V30 15 1 13 16
M  V30 16 1 15 17
M  V30 17 2 16 18
M  V30 18 1 16 19
M  V30 19 1 17 20
M  V30 20 1 18 21
M  V30 21 1 20 22
M  V30 22 2 22 23
M  V30 23 1 22 24
M  V30 24 1 23 25
M  V30 25 2 24 26
M  V30 26 2 25 27
M  V30 27 1 27 28
M  V30 28 2 28 29
M  V30 29 1 28 30
M  V30 30 1 29 31
M  V30 31 1 29 32
M  V30 32 2 30 33
M  V30 33 2 31 34
M  V30 34 1 31 35
M  V30 35 2 32 36
M  V30 36 1 4 6
M  V30 37 1 14 15
M  V30 38 1 17 18
M  V30 39 1 26 27
M  V30 40 1 33 36
M  V30 END BOND
M  V30 END CTAB
M  END
>  <Molecule ChEMBL ID>
CHEMBL3695821

>  <Smiles>
Cc1c(C)n(Cc2ccc(-c3ccccc3C(=O)O)cc2)c2ccc(C(=O)NCc3cccs3)cc12

>  <IC50_nM>
1

>  <Assay Description>
Binding affinity to GST-tagged PPAR-gamma-LBD (unknown origin) after 2 hrs by Lantha screen assay using fluormone Pan-PPAR green probe

$$$$
CHEMBL5184027
Actelion Java MolfileCreator 2.0

  0  0  0  0  0  0              0 V3000
M  V30 BEGIN CTAB
M  V30 COUNTS 30 33 0 0 0
M  V30 BEGIN ATOM
M  V30 1 Cl 1.732 1.4999 0.0 0
M  V30 2 C 2.598 1.0 0.0 0
M  V30 3 C 2.598 0.0 0.0 0
M  V30 4 C 3.4641 1.4999 0.0 0
M  V30 5 C 1.732 -0.5 0.0 0
M  V30 6 C 3.4641 -0.5 0.0 0
M  V30 7 C 4.3301 1.0 0.0 0
M  V30 8 O 1.732 -1.5 0.0 0
M  V30 9 N 0.866 0.0 0.0 0
M  V30 10 C 4.3301 0.0 0.0 0
M  V30 11 C 0.0 -0.5 0.0 0
M  V30 12 N 5.1961 -0.5 0.0 0 CHG=1
M  V30 13 C -0.866 0.0 0.0 0
M  V30 14 C 0.0 -1.4999 0.0 0
M  V30 15 O 5.1961 -1.5 0.0 0
M  V30 16 O 6.0621 0.0 0.0 0 CHG=-1
M  V30 17 C -1.732 -0.4999 0.0 0
M  V30 18 C -0.866 -1.9999 0.0 0
M  V30 19 C -1.732 -1.4999 0.0 0
M  V30 20 C -2.598 -1.9999 0.0 0
M  V30 21 O -3.5116 -1.5932 0.0 0
M  V30 22 N -2.7026 -2.9945 0.0 0
M  V30 23 C -4.1807 -2.3364 0.0 0
M  V30 24 C -3.6807 -3.2024 0.0 0
M  V30 25 C -5.1807 -2.3364 0.0 0
M  V30 26 C -4.1807 -4.0684 0.0 0
M  V30 27 C -5.6807 -3.2024 0.0 0
M  V30 28 C -5.1807 -4.0684 0.0 0
M  V30 29 C -6.6807 -3.2024 0.0 0
M  V30 30 C -5.6807 -4.9344 0.0 0
M  V30 END ATOM
M  V30 BEGIN BOND
M  V30 1 1 1 2
M  V30 2 2 2 3
M  V30 3 1 2 4
M  V30 4 1 3 5
M  V30 5 1 3 6
M  V30 6 2 4 7
M  V30 7 2 5 8
M  V30 8 1 5 9
M  V30 9 2 6 10
M  V30 10 1 9 11
M  V30 11 1 10 12
M  V30 12 2 11 13
M  V30 13 1 11 14
M  V30 14 2 12 15
M  V30 15 1 12 16
M  V30 16 1 13 17
M  V30 17 2 14 18
M  V30 18 2 17 19
M  V30 19 1 19 20
M  V30 20 1 20 21
M  V30 21 2 20 22
M  V30 22 1 21 23
M  V30 23 1 22 24
M  V30 24 1 23 25
M  V30 25 1 24 26
M  V30 26 2 25 27
M  V30 27 2 26 28
M  V30 28 1 27 29
M  V30 29 1 28 30
M  V30 30 1 7 10
M  V30 31 1 18 19
M  V30 32 2 23 24
M  V30 33 1 27 28
M  V30 END BOND
M  V30 END CTAB
M  END
>  <Molecule ChEMBL ID>
CHEMBL5184027

>  <Smiles>
Cc1cc2nc(-c3ccc(NC(=O)c4cc([N+](=O)[O-])ccc4Cl)cc3)oc2cc1C

>  <IC50_nM>
1.6

>  <Assay Description>
Inverse agonist activity at PPARgamma in human RT112/84-FABP4 cells assessed as reduction in PPARgamma transactivation measured by Nanoluciferase reporter gene assay

$$$$
CHEMBL3678135
Actelion Java MolfileCreator 2.0

  0  0  0  0  0  0              0 V3000
M  V30 BEGIN CTAB
M  V30 COUNTS 40 43 0 0 0
M  V30 BEGIN ATOM
M  V30 1 Cl 6.0621 -1.9999 0.0 0
M  V30 2 C 5.1961 -1.4999 0.0 0
M  V30 3 C 5.1961 -0.5 0.0 0
M  V30 4 C 4.3301 -1.9999 0.0 0
M  V30 5 C 4.3301 0.0 0.0 0
M  V30 6 C 6.0621 0.0 0.0 0
M  V30 7 C 3.4641 -1.5 0.0 0
M  V30 8 C 3.4641 -0.5 0.0 0
M  V30 9 N 6.0621 1.0 0.0 0
M  V30 10 O 2.598 0.0 0.0 0
M  V30 11 C 6.8711 1.5877 0.0 0
M  V30 12 C 5.2531 1.5877 0.0 0
M  V30 13 C 1.732 -0.5 0.0 0 CFG=2
M  V30 14 C 6.5621 2.5388 0.0 0
M  V30 15 C 7.8493 1.3798 0.0 0
M  V30 16 C 5.5621 2.5388 0.0 0
M  V30 17 C 4.3021 1.2787 0.0 0
M  V30 18 C 0.866 0.0 0.0 0
M  V30 19 C 1.732 -1.5 0.0 0
M  V30 20 C 7.2313 3.2819 0.0 0
M  V30 21 C 8.5184 2.123 0.0 0
M  V30 22 C 4.9743 3.3478 0.0 0
M  V30 23 O 0.866 1.0 0.0 0
M  V30 24 O 0.0 -0.5 0.0 0
M  V30 25 C 8.2094 3.074 0.0 0
M  V30 26 C 8.8785 3.8172 0.0 0
M  V30 27 O 9.8567 3.6093 0.0 0
M  V30 28 N 8.5695 4.7682 0.0 0
M  V30 29 C 9.2387 5.5114 0.0 0 CFG=2
M  V30 30 C 10.2168 5.3035 0.0 0
M  V30 31 C 8.9296 6.4624 0.0 0
M  V30 32 C 10.5258 4.3524 0.0 0
M  V30 33 C 10.8859 6.0466 0.0 0
M  V30 34 C 11.504 4.1445 0.0 0
M  V30 35 C 11.8641 5.8387 0.0 0
M  V30 36 C 12.1731 4.8876 0.0 0
M  V30 37 C 11.813 3.1934 0.0 0
M  V30 38 C 12.764 3.5025 0.0 0
M  V30 39 C 12.122 2.2424 0.0 0
M  V30 40 C 10.8619 2.8844 0.0 0
M  V30 END ATOM
M  V30 BEGIN BOND
M  V30 1 1 1 2
M  V30 2 2 2 3
M  V30 3 1 2 4
M  V30 4 1 3 5
M  V30 5 1 3 6
M  V30 6 2 4 7
M  V30 7 2 5 8
M  V30 8 1 6 9
M  V30 9 1 8 10
M  V30 10 1 9 11
M  V30 11 1 9 12
M  V30 12 1 10 13
M  V30 13 2 11 14
M  V30 14 1 11 15
M  V30 15 2 12 16
M  V30 16 1 12 17
M  V30 17 1 13 18
M  V30 18 1 13 19 CFG=1
M  V30 19 1 14 20
M  V30 20 2 15 21
M  V30 21 1 16 22
M  V30 22 2 18 23
M  V30 23 1 18 24
M  V30 24 2 20 25
M  V30 25 1 25 26
M  V30 26 2 26 27
M  V30 27 1 26 28
M  V30 28 1 28 29
M  V30 29 1 29 30
M  V30 30 1 29 31 CFG=1
M  V30 31 2 30 32
M  V30 32 1 30 33
M  V30 33 1 32 34
M  V30 34 2 33 35
M  V30 35 2 34 36
M  V30 36 1 34 37
M  V30 37 1 37 38
M  V30 38 1 37 39
M  V30 39 1 37 40
M  V30 40 1 7 8
M  V30 41 1 14 16
M  V30 42 1 21 25
M  V30 43 1 35 36
M  V30 END BOND
M  V30 BEGIN COLLECTION
M  V30 MDLV30/STEABS ATOMS=(2 13 29)
M  V30 END COLLECTION
M  V30 END CTAB
M  END
>  <Molecule ChEMBL ID>
CHEMBL3678135

>  <Smiles>
Cc1c(C)n(Cc2cc(O[C@@H](C)C(=O)O)ccc2Cl)c2ccc(C(=O)N[C@@H](C)c3cccc(C(C)(C)C)c3)cc12

>  <IC50_nM>
1.6

>  <Assay Description>
Lanthascreen Competitive Binding Assay: The assay was performed according to manufacturer protocol. A mixture of 5 nM GST-PPARG-LBD, 5 nM Tb-GST-antibody, 5 nM Fluormone Pan- PPAR Green, and serial dilutions of the experimental compound, beginning at 10 ׬� downwards, was added to wells of black 384-well low- volume plates (Greiner) to a total volume of 18 xL. All dilutions were made in TR-FRET assay buffer C. DMSO at 2% final concentration was used as a no-ligand control. Experiment was performed in triplicate, and incubated for 2 hours in the dark prior to assay read in Perkin Elmer ViewLux ultra HTS microplate reader. FRET signal was measured by excitation at 340 nm and emission at 520 nm for fluorescein and 490 nm for terbium.

$$$$
CHEMBL3678129
Actelion Java MolfileCreator 2.0

  0  0  0  0  0  0              0 V3000
M  V30 BEGIN CTAB
M  V30 COUNTS 40 43 0 0 0
M  V30 BEGIN ATOM
M  V30 1 Cl 4.3301 0.9999 0.0 0
M  V30 2 C 4.3301 0.0 0.0 0
M  V30 3 C 3.4641 -0.5 0.0 0
M  V30 4 C 5.1961 -0.5 0.0 0
M  V30 5 O 2.598 0.0 0.0 0
M  V30 6 C 3.4641 -1.5 0.0 0
M  V30 7 C 5.1961 -1.5 0.0 0
M  V30 8 C 1.732 -0.5 0.0 0 CFG=2
M  V30 9 C 4.3301 -2.0 0.0 0
M  V30 10 C 0.866 0.0 0.0 0
M  V30 11 C 1.732 -1.5 0.0 0
M  V30 12 C 4.3301 -3.0 0.0 0
M  V30 13 O 0.866 1.0 0.0 0
M  V30 14 O 0.0 -0.5 0.0 0
M  V30 15 N 5.1961 -3.5 0.0 0
M  V30 16 C 5.3006 -4.4945 0.0 0
M  V30 17 C 6.1096 -3.0932 0.0 0
M  V30 18 C 6.2788 -4.7024 0.0 0
M  V30 19 C 4.6315 -5.2376 0.0 0
M  V30 20 C 6.7788 -3.8364 0.0 0
M  V30 21 C 6.3176 -2.1151 0.0 0
M  V30 22 C 6.5878 -5.6534 0.0 0
M  V30 23 C 4.9405 -6.1887 0.0 0
M  V30 24 C 7.7733 -3.7318 0.0 0
M  V30 25 C 5.9187 -6.3966 0.0 0
M  V30 26 C 6.2277 -7.3476 0.0 0
M  V30 27 O 5.5586 -8.0908 0.0 0
M  V30 28 N 7.2058 -7.5556 0.0 0
M  V30 29 C 7.5148 -8.5066 0.0 0 CFG=2
M  V30 30 C 6.8457 -9.2498 0.0 0
M  V30 31 C 8.493 -8.7145 0.0 0
M  V30 32 C 5.8676 -9.0418 0.0 0
M  V30 33 C 7.1547 -10.2008 0.0 0
M  V30 34 C 5.1984 -9.785 0.0 0
M  V30 35 C 6.4856 -10.944 0.0 0
M  V30 36 C 5.5075 -10.736 0.0 0
M  V30 37 C 4.2203 -9.5771 0.0 0
M  V30 38 C 4.0124 -10.5552 0.0 0
M  V30 39 C 3.2421 -9.3692 0.0 0
M  V30 40 C 4.4282 -8.5989 0.0 0
M  V30 END ATOM
M  V30 BEGIN BOND
M  V30 1 1 1 2
M  V30 2 2 2 3
M  V30 3 1 2 4
M  V30 4 1 3 5
M  V30 5 1 3 6
M  V30 6 2 4 7
M  V30 7 1 5 8
M  V30 8 2 6 9
M  V30 9 1 8 10
M  V30 10 1 8 11 CFG=1
M  V30 11 1 9 12
M  V30 12 2 10 13
M  V30 13 1 10 14
M  V30 14 1 12 15
M  V30 15 1 15 16
M  V30 16 1 15 17
M  V30 17 2 16 18
M  V30 18 1 16 19
M  V30 19 2 17 20
M  V30 20 1 17 21
M  V30 21 1 18 22
M  V30 22 2 19 23
M  V30 23 1 20 24
M  V30 24 2 22 25
M  V30 25 1 25 26
M  V30 26 2 26 27
M  V30 27 1 26 28
M  V30 28 1 28 29
M  V30 29 1 29 30
M  V30 30 1 29 31 CFG=1
M  V30 31 2 30 32
M  V30 32 1 30 33
M  V30 33 1 32 34
M  V30 34 2 33 35
M  V30 35 2 34 36
M  V30 36 1 34 37
M  V30 37 1 37 38
M  V30 38 1 37 39
M  V30 39 1 37 40
M  V30 40 1 7 9
M  V30 41 1 18 20
M  V30 42 1 23 25
M  V30 43 1 35 36
M  V30 END BOND
M  V30 BEGIN COLLECTION
M  V30 MDLV30/STEABS ATOMS=(2 8 29)
M  V30 END COLLECTION
M  V30 END CTAB
M  END
>  <Molecule ChEMBL ID>
CHEMBL3678129

>  <Smiles>
Cc1c(C)n(Cc2ccc(Cl)c(O[C@@H](C)C(=O)O)c2)c2ccc(C(=O)N[C@@H](C)c3cccc(C(C)(C)C)c3)cc12

>  <IC50_nM>
1.6

>  <Assay Description>
Lanthascreen Competitive Binding Assay: The assay was performed according to manufacturer protocol. A mixture of 5 nM GST-PPARG-LBD, 5 nM Tb-GST-antibody, 5 nM Fluormone Pan- PPAR Green, and serial dilutions of the experimental compound, beginning at 10 ׬� downwards, was added to wells of black 384-well low- volume plates (Greiner) to a total volume of 18 xL. All dilutions were made in TR-FRET assay buffer C. DMSO at 2% final concentration was used as a no-ligand control. Experiment was performed in triplicate, and incubated for 2 hours in the dark prior to assay read in Perkin Elmer ViewLux ultra HTS microplate reader. FRET signal was measured by excitation at 340 nm and emission at 520 nm for fluorescein and 490 nm for terbium.

$$$$
CHEMBL3699414
Actelion Java MolfileCreator 2.0

  0  0  0  0  0  0              0 V3000
M  V30 BEGIN CTAB
M  V30 COUNTS 39 43 0 0 0
M  V30 BEGIN ATOM
M  V30 1 Br 6.0621 0.0 0.0 0
M  V30 2 C 5.1961 -0.5 0.0 0
M  V30 3 N 4.3301 0.0 0.0 0
M  V30 4 C 5.1961 -1.4999 0.0 0
M  V30 5 C 3.4641 -0.5 0.0 0
M  V30 6 C 4.3301 -1.9999 0.0 0
M  V30 7 C 3.4641 -1.4999 0.0 0
M  V30 8 C 2.598 0.0 0.0 0 CFG=2
M  V30 9 N 1.732 -0.5 0.0 0
M  V30 10 C 2.598 1.0 0.0 0
M  V30 11 C 0.866 0.0 0.0 0
M  V30 12 O 0.866 1.0 0.0 0
M  V30 13 C 0.0 -0.5 0.0 0
M  V30 14 C 0.0 -1.4999 0.0 0
M  V30 15 C -0.866 0.0 0.0 0
M  V30 16 C -0.866 -1.9999 0.0 0
M  V30 17 C -1.732 -0.4999 0.0 0
M  V30 18 C -1.732 -1.4999 0.0 0
M  V30 19 C -1.0739 -2.9781 0.0 0
M  V30 20 N -2.4751 -2.1691 0.0 0
M  V30 21 C -2.0684 -3.0826 0.0 0
M  V30 22 C -0.4048 -3.7212 0.0 0
M  V30 23 C -3.4533 -1.9612 0.0 0
M  V30 24 C -2.5684 -3.9487 0.0 0
M  V30 25 C -4.1224 -2.7043 0.0 0
M  V30 26 C -5.1006 -2.4964 0.0 0
M  V30 27 C -3.8134 -3.6554 0.0 0
M  V30 28 C -5.7697 -3.2395 0.0 0
M  V30 29 C -4.4825 -4.3985 0.0 0
M  V30 30 C -5.4607 -4.1906 0.0 0
M  V30 31 C -6.1298 -4.9337 0.0 0
M  V30 32 C -7.108 -4.7258 0.0 0
M  V30 33 C -5.8208 -5.8848 0.0 0
M  V30 34 C -7.417 -3.7748 0.0 0
M  V30 35 C -7.7771 -5.469 0.0 0
M  V30 36 C -6.4899 -6.6279 0.0 0
M  V30 37 O -6.7478 -3.0316 0.0 0
M  V30 38 O -8.3951 -3.5669 0.0 0
M  V30 39 C -7.4681 -6.42 0.0 0
M  V30 END ATOM
M  V30 BEGIN BOND
M  V30 1 1 1 2
M  V30 2 2 2 3
M  V30 3 1 2 4
M  V30 4 1 3 5
M  V30 5 2 4 6
M  V30 6 2 5 7
M  V30 7 1 5 8
M  V30 8 1 8 9
M  V30 9 1 8 10 CFG=3
M  V30 10 1 9 11
M  V30 11 2 11 12
M  V30 12 1 11 13
M  V30 13 2 13 14
M  V30 14 1 13 15
M  V30 15 1 14 16
M  V30 16 2 15 17
M  V30 17 2 16 18
M  V30 18 1 16 19
M  V30 19 1 18 20
M  V30 20 2 19 21
M  V30 21 1 19 22
M  V30 22 1 20 23
M  V30 23 1 21 24
M  V30 24 1 23 25
M  V30 25 2 25 26
M  V30 26 1 25 27
M  V30 27 1 26 28
M  V30 28 2 27 29
M  V30 29 2 28 30
M  V30 30 1 30 31
M  V30 31 2 31 32
M  V30 32 1 31 33
M  V30 33 1 32 34
M  V30 34 1 32 35
M  V30 35 2 33 36
M  V30 36 2 34 37
M  V30 37 1 34 38
M  V30 38 2 35 39
M  V30 39 1 6 7
M  V30 40 1 17 18
M  V30 41 1 20 21
M  V30 42 1 29 30
M  V30 43 1 36 39
M  V30 END BOND
M  V30 BEGIN COLLECTION
M  V30 MDLV30/STEABS ATOMS=(1 8)
M  V30 END COLLECTION
M  V30 END CTAB
M  END
>  <Molecule ChEMBL ID>
CHEMBL3699414

>  <Smiles>
Cc1c(C)n(Cc2ccc(-c3ccccc3C(=O)O)cc2)c2ccc(C(=O)N[C@H](C)c3cccc(Br)n3)cc12

>  <IC50_nM>
2

>  <Assay Description>
Lanthascreen Competitive Binding Assay: The assay was performed according to manufacturer protocol. A mixture of nM GST-PPARG-LBD, 5 nM Tb-GST-antibody, 5 nM Fluormone Pan-PPAR Green, and serial dilutions of the experimental compound, beginning at 10 ׬M downwards, was added to wells of black 384-well low-volume plates (Greiner) to a total volume of 18 ׬L. All dilutions were made in TR-FRET assay buffer C. DMSO at 2% final concentration was used as a no-ligand control. Experiment was performed in triplicate, and incubated for 2 hours in the dark prior to assay read in Perkin Elmer ViewLux ultra HTS microplate reader. FRET signal was measured by excitation at 340 nm and emission at 520 nm for fluorescein and 490 nm for terbium. Fold change over DMSO was calculated using GraphPad Prism Software (La Jolla, Calif.) by calculating 520 nm/490 nm ratio. Graphs were plotted as fold change of FRET signal for compound treatment over DMSO-only control.

$$$$
CHEMBL484606
Actelion Java MolfileCreator 2.0

  0  0  0  0  0  0              0 V3000
M  V30 BEGIN CTAB
M  V30 COUNTS 33 36 0 0 0
M  V30 BEGIN ATOM
M  V30 1 S 6.27 0.9781 0.0 0
M  V30 2 C 6.0621 0.0 0.0 0
M  V30 3 C 7.2646 1.0826 0.0 0
M  V30 4 C 5.1961 -0.5 0.0 0
M  V30 5 C 6.9282 -0.5 0.0 0
M  V30 6 C 7.6713 0.1691 0.0 0
M  V30 7 C 5.1961 -1.5 0.0 0
M  V30 8 C 4.3301 0.0 0.0 0
M  V30 9 C 6.9282 -1.5 0.0 0
M  V30 10 C 6.0621 -2.0 0.0 0
M  V30 11 C 3.4641 -0.5 0.0 0 CFG=2
M  V30 12 O 7.7942 -2.0 0.0 0
M  V30 13 O 2.598 0.0 0.0 0
M  V30 14 C 3.4641 -1.5 0.0 0
M  V30 15 C 8.6602 -1.5 0.0 0
M  V30 16 C 1.732 -0.5 0.0 0
M  V30 17 O 2.598 -1.9999 0.0 0
M  V30 18 O 4.3301 -2.0 0.0 0
M  V30 19 C 9.5262 -2.0 0.0 0
M  V30 20 C 0.866 0.0 0.0 0
M  V30 21 C 10.3923 -1.5 0.0 0
M  V30 22 C 0.0 -0.5 0.0 0
M  V30 23 N 11.3058 -1.9067 0.0 0
M  V30 24 C 10.4968 -0.5054 0.0 0
M  V30 25 C 11.9749 -1.1635 0.0 0
M  V30 26 O 11.4749 -0.2975 0.0 0
M  V30 27 C 9.7536 0.1636 0.0 0
M  V30 28 C 12.9695 -1.2681 0.0 0
M  V30 29 C 13.3762 -2.1816 0.0 0
M  V30 30 C 13.5572 -0.4591 0.0 0
M  V30 31 C 14.3707 -2.2861 0.0 0
M  V30 32 C 14.5518 -0.5636 0.0 0
M  V30 33 C 14.9585 -1.4771 0.0 0
M  V30 END ATOM
M  V30 BEGIN BOND
M  V30 1 1 1 2
M  V30 2 1 1 3
M  V30 3 2 2 4
M  V30 4 1 2 5
M  V30 5 2 3 6
M  V30 6 1 4 7
M  V30 7 1 4 8
M  V30 8 2 5 9
M  V30 9 2 7 10
M  V30 10 1 8 11
M  V30 11 1 9 12
M  V30 12 1 11 13 CFG=1
M  V30 13 1 11 14
M  V30 14 1 12 15
M  V30 15 1 13 16
M  V30 16 2 14 17
M  V30 17 1 14 18
M  V30 18 1 15 19
M  V30 19 1 16 20
M  V30 20 1 19 21
M  V30 21 1 20 22
M  V30 22 1 21 23
M  V30 23 2 21 24
M  V30 24 2 23 25
M  V30 25 1 24 26
M  V30 26 1 24 27
M  V30 27 1 25 28
M  V30 28 2 28 29
M  V30 29 1 28 30
M  V30 30 1 29 31
M  V30 31 2 30 32
M  V30 32 2 31 33
M  V30 33 1 5 6
M  V30 34 1 9 10
M  V30 35 1 25 26
M  V30 36 1 32 33
M  V30 END BOND
M  V30 BEGIN COLLECTION
M  V30 MDLV30/STEABS ATOMS=(1 11)
M  V30 END COLLECTION
M  V30 END CTAB
M  END
>  <Molecule ChEMBL ID>
CHEMBL484606

>  <Smiles>
CCCO[C@@H](Cc1ccc(OCCc2nc(-c3ccccc3)oc2C)c2ccsc12)C(=O)O

>  <IC50_nM>
2

>  <Assay Description>
Displacement of radio labeled 2(S)-(2-benzoyl-phenylamino)-3-{4-[1,1-ditritio-2-(5-methyl-2-phenyl-oxazol-4-yl)-ethoxy]-phenyl}-propionic acid from GST-fused human PPARgamma expressed in Escherichia coli BL21 cells by scintillation proximity assay

$$$$
CHEMBL462378
Actelion Java MolfileCreator 2.0

  0  0  0  0  0  0              0 V3000
M  V30 BEGIN CTAB
M  V30 COUNTS 36 39 0 0 0
M  V30 BEGIN ATOM
M  V30 1 F 6.0621 -1.9999 0.0 0
M  V30 2 C 5.1961 -1.4999 0.0 0
M  V30 3 C 5.1961 -0.5 0.0 0
M  V30 4 C 4.3301 -1.9999 0.0 0
M  V30 5 C 4.3301 0.0 0.0 0
M  V30 6 C 6.0621 0.0 0.0 0
M  V30 7 C 3.4641 -1.5 0.0 0
M  V30 8 C 3.4641 -0.5 0.0 0
M  V30 9 N 6.0621 0.9999 0.0 0
M  V30 10 O 2.598 0.0 0.0 0
M  V30 11 C 6.8711 1.5877 0.0 0
M  V30 12 C 5.2531 1.5877 0.0 0
M  V30 13 C 1.732 -0.5 0.0 0 CFG=2
M  V30 14 N 7.8493 1.3798 0.0 0
M  V30 15 C 6.5621 2.5388 0.0 0
M  V30 16 C 5.5621 2.5388 0.0 0
M  V30 17 C 4.3021 1.2787 0.0 0
M  V30 18 C 0.866 0.0 0.0 0
M  V30 19 C 1.732 -1.5 0.0 0
M  V30 20 C 8.5184 2.123 0.0 0
M  V30 21 C 7.2313 3.2819 0.0 0
M  V30 22 C 4.9743 3.3478 0.0 0
M  V30 23 O 0.866 1.0 0.0 0
M  V30 24 O 0.0 -0.5 0.0 0
M  V30 25 O 9.4966 1.9151 0.0 0
M  V30 26 C 8.2094 3.074 0.0 0
M  V30 27 O 5.3811 4.2614 0.0 0
M  V30 28 C 3.9798 3.2433 0.0 0
M  V30 29 C 10.1657 2.6582 0.0 0
M  V30 30 C 3.392 4.0523 0.0 0
M  V30 31 C 3.5731 2.3297 0.0 0
M  V30 32 C 2.3975 3.9478 0.0 0
M  V30 33 C 2.5786 2.2252 0.0 0
M  V30 34 C 1.9908 3.0342 0.0 0
M  V30 35 O 0.9963 2.9297 0.0 0
M  V30 36 C 0.5895 2.0161 0.0 0
M  V30 END ATOM
M  V30 BEGIN BOND
M  V30 1 1 1 2
M  V30 2 2 2 3
M  V30 3 1 2 4
M  V30 4 1 3 5
M  V30 5 1 3 6
M  V30 6 2 4 7
M  V30 7 2 5 8
M  V30 8 1 6 9
M  V30 9 1 8 10
M  V30 10 1 9 11
M  V30 11 1 9 12
M  V30 12 1 10 13
M  V30 13 2 11 14
M  V30 14 1 11 15
M  V30 15 2 12 16
M  V30 16 1 12 17
M  V30 17 1 13 18
M  V30 18 1 13 19 CFG=1
M  V30 19 1 14 20
M  V30 20 2 15 21
M  V30 21 1 16 22
M  V30 22 2 18 23
M  V30 23 1 18 24
M  V30 24 1 20 25
M  V30 25 2 20 26
M  V30 26 2 22 27
M  V30 27 1 22 28
M  V30 28 1 25 29
M  V30 29 2 28 30
M  V30 30 1 28 31
M  V30 31 1 30 32
M  V30 32 2 31 33
M  V30 33 2 32 34
M  V30 34 1 34 35
M  V30 35 1 35 36
M  V30 36 1 7 8
M  V30 37 1 15 16
M  V30 38 1 21 26
M  V30 39 1 33 34
M  V30 END BOND
M  V30 BEGIN COLLECTION
M  V30 MDLV30/STEABS ATOMS=(1 13)
M  V30 END COLLECTION
M  V30 END CTAB
M  END
>  <Molecule ChEMBL ID>
CHEMBL462378

>  <Smiles>
COc1ccc(C(=O)c2c(C)n(Cc3cc(O[C@@H](C)C(=O)O)ccc3F)c3nc(OC)ccc23)cc1

>  <IC50_nM>
2

>  <Assay Description>
Displacement of [3H]2AD-5075 from GST-tagged human PPARgamma receptor expressed in Escherichia coli BL21

$$$$
CHEMBL221580
Actelion Java MolfileCreator 2.0

  0  0  0  0  0  0              0 V3000
M  V30 BEGIN CTAB
M  V30 COUNTS 35 38 0 0 0
M  V30 BEGIN ATOM
M  V30 1 S 2.598 0.0 0.0 0
M  V30 2 O 3.098 -0.866 0.0 0
M  V30 3 O 2.098 0.866 0.0 0
M  V30 4 N 1.732 -0.5 0.0 0
M  V30 5 C 3.4641 0.5 0.0 0
M  V30 6 C 0.866 0.0 0.0 0
M  V30 7 O 0.866 1.0 0.0 0
M  V30 8 C 0.0 -0.5 0.0 0
M  V30 9 N -0.9135 -0.0932 0.0 0
M  V30 10 C -0.1045 -1.4945 0.0 0
M  V30 11 C -1.5826 -0.8364 0.0 0
M  V30 12 C -1.1214 0.8848 0.0 0
M  V30 13 C 0.6386 -2.1636 0.0 0
M  V30 14 C -1.0826 -1.7024 0.0 0
M  V30 15 C -2.5826 -0.8364 0.0 0
M  V30 16 C -2.0725 1.1939 0.0 0
M  V30 17 C 0.4307 -3.1418 0.0 0
M  V30 18 C 1.5896 -1.8546 0.0 0
M  V30 19 C -1.5826 -2.5684 0.0 0
M  V30 20 C -3.0826 -1.7024 0.0 0
M  V30 21 C -2.2804 2.172 0.0 0
M  V30 22 C -2.8156 0.5247 0.0 0
M  V30 23 C 1.1738 -3.8109 0.0 0
M  V30 24 C 2.3328 -2.5237 0.0 0
M  V30 25 C -2.5826 -2.5684 0.0 0
M  V30 26 C -3.2314 2.481 0.0 0
M  V30 27 C -3.7667 0.8337 0.0 0
M  V30 28 C 2.1249 -3.5019 0.0 0
M  V30 29 C -3.9746 1.8119 0.0 0
M  V30 30 C -3.4393 3.4592 0.0 0
M  V30 31 O 2.868 -4.171 0.0 0
M  V30 32 F -4.4175 3.2513 0.0 0
M  V30 33 F -3.6473 4.4373 0.0 0
M  V30 34 F -2.4612 3.6671 0.0 0
M  V30 35 C 3.8191 -3.862 0.0 0
M  V30 END ATOM
M  V30 BEGIN BOND
M  V30 1 2 1 2
M  V30 2 2 1 3
M  V30 3 1 1 4
M  V30 4 1 1 5
M  V30 5 1 4 6
M  V30 6 2 6 7
M  V30 7 1 6 8
M  V30 8 1 8 9
M  V30 9 2 8 10
M  V30 10 1 9 11
M  V30 11 1 9 12
M  V30 12 1 10 13
M  V30 13 1 10 14
M  V30 14 1 11 15
M  V30 15 1 12 16
M  V30 16 2 13 17
M  V30 17 1 13 18
M  V30 18 1 14 19
M  V30 19 2 15 20
M  V30 20 2 16 21
M  V30 21 1 16 22
M  V30 22 1 17 23
M  V30 23 2 18 24
M  V30 24 2 19 25
M  V30 25 1 21 26
M  V30 26 2 22 27
M  V30 27 2 23 28
M  V30 28 2 26 29
M  V30 29 1 26 30
M  V30 30 1 28 31
M  V30 31 1 30 32
M  V30 32 1 30 33
M  V30 33 1 30 34
M  V30 34 1 31 35
M  V30 35 2 11 14
M  V30 36 1 20 25
M  V30 37 1 24 28
M  V30 38 1 27 29
M  V30 END BOND
M  V30 END CTAB
M  END
>  <Molecule ChEMBL ID>
CHEMBL221580

>  <Smiles>
COc1ccc(-c2c(C(=O)NS(C)(=O)=O)n(Cc3cccc(C(F)(F)F)c3)c3ccccc23)cc1

>  <IC50_nM>
2

>  <Assay Description>
Displacement of Fluormone from PPAR gamma

$$$$
CHEMBL5289955
Actelion Java MolfileCreator 2.0

  0  0  0  0  0  0              0 V3000
M  V30 BEGIN CTAB
M  V30 COUNTS 27 29 0 0 0
M  V30 BEGIN ATOM
M  V30 1 Cl 6.0621 -1.9999 0.0 0
M  V30 2 C 5.1961 -1.4999 0.0 0
M  V30 3 C 5.1961 -0.5 0.0 0
M  V30 4 C 4.3301 -1.9999 0.0 0
M  V30 5 Cl 6.0621 0.0 0.0 0
M  V30 6 C 4.3301 0.0 0.0 0
M  V30 7 C 4.3301 -2.9999 0.0 0
M  V30 8 C 3.4641 -1.5 0.0 0
M  V30 9 C 3.4641 -0.5 0.0 0
M  V30 10 O 5.1961 -3.4999 0.0 0
M  V30 11 N 3.4641 -3.5 0.0 0
M  V30 12 C 2.598 0.0 0.0 0
M  V30 13 C 3.4641 -4.5 0.0 0
M  V30 14 O 2.598 1.0 0.0 0
M  V30 15 N 1.732 -0.5 0.0 0
M  V30 16 C 2.598 -4.9999 0.0 0
M  V30 17 C 4.3301 -5.0 0.0 0
M  V30 18 C 0.866 0.0 0.0 0
M  V30 19 C 2.598 -5.9999 0.0 0
M  V30 20 C 4.3301 -6.0 0.0 0
M  V30 21 C 0.0 -0.5 0.0 0
M  V30 22 C 3.4641 -6.5 0.0 0
M  V30 23 C -0.866 0.0 0.0 0
M  V30 24 C 0.0 -1.4999 0.0 0
M  V30 25 C -1.732 -0.4999 0.0 0
M  V30 26 C -0.866 -1.9999 0.0 0
M  V30 27 C -1.732 -1.4999 0.0 0
M  V30 END ATOM
M  V30 BEGIN BOND
M  V30 1 1 1 2
M  V30 2 2 2 3
M  V30 3 1 2 4
M  V30 4 1 3 5
M  V30 5 1 3 6
M  V30 6 1 4 7
M  V30 7 2 4 8
M  V30 8 2 6 9
M  V30 9 2 7 10
M  V30 10 1 7 11
M  V30 11 1 9 12
M  V30 12 1 11 13
M  V30 13 2 12 14
M  V30 14 1 12 15
M  V30 15 2 13 16
M  V30 16 1 13 17
M  V30 17 1 15 18
M  V30 18 1 16 19
M  V30 19 2 17 20
M  V30 20 1 18 21
M  V30 21 2 19 22
M  V30 22 2 21 23
M  V30 23 1 21 24
M  V30 24 1 23 25
M  V30 25 2 24 26
M  V30 26 2 25 27
M  V30 27 1 8 9
M  V30 28 1 20 22
M  V30 29 1 26 27
M  V30 END BOND
M  V30 END CTAB
M  END
>  <Molecule ChEMBL ID>
CHEMBL5289955

>  <Smiles>
O=C(NCc1ccccc1)c1cc(Cl)c(Cl)c(C(=O)Nc2ccccc2)c1

>  <IC50_nM>
2

>  <Assay Description>
Inverse agonist activity at human PPARgamma in human RT112/84 transfected with NLuc-fused FABP4 assessed as reduction in PPARgamma transactivation incubated for 6 to 18 hrs by Nano-Glo luciferase assay

$$$$
CHEMBL181937
Actelion Java MolfileCreator 2.0

  0  0  0  0  0  0              0 V3000
M  V30 BEGIN CTAB
M  V30 COUNTS 38 41 0 0 0
M  V30 BEGIN ATOM
M  V30 1 F 7.7798 -2.429 0.0 0
M  V30 2 C 7.0367 -1.7599 0.0 0
M  V30 3 F 6.3676 -2.503 0.0 0
M  V30 4 F 6.2936 -1.0907 0.0 0
M  V30 5 O 7.7058 -1.0167 0.0 0
M  V30 6 C 7.3968 -0.0657 0.0 0
M  V30 7 C 6.4187 0.1422 0.0 0
M  V30 8 C 8.0659 0.6774 0.0 0
M  V30 9 C 6.1096 1.0932 0.0 0
M  V30 10 C 7.7569 1.6284 0.0 0
M  V30 11 C 6.7788 1.8364 0.0 0
M  V30 12 C 5.1961 1.4999 0.0 0
M  V30 13 N 6.2788 2.7024 0.0 0
M  V30 14 C 5.3006 2.4945 0.0 0
M  V30 15 C 4.3301 0.9999 0.0 0
M  V30 16 C 6.6855 3.6159 0.0 0
M  V30 17 C 4.5575 3.1636 0.0 0
M  V30 18 C 4.3301 0.0 0.0 0
M  V30 19 O 7.68 3.7205 0.0 0
M  V30 20 C 6.0977 4.4249 0.0 0
M  V30 21 C 3.4641 -0.5 0.0 0
M  V30 22 C 5.1961 -0.5 0.0 0
M  V30 23 C 6.5045 5.3385 0.0 0
M  V30 24 C 5.1032 4.3204 0.0 0
M  V30 25 O 2.598 0.0 0.0 0
M  V30 26 C 3.4641 -1.5 0.0 0
M  V30 27 C 5.1961 -1.5 0.0 0
M  V30 28 C 5.9167 6.1475 0.0 0
M  V30 29 C 4.5154 5.1294 0.0 0
M  V30 30 C 1.732 -0.5 0.0 0 CFG=2
M  V30 31 C 4.3301 -2.0 0.0 0
M  V30 32 C 4.9222 6.043 0.0 0
M  V30 33 C 0.866 0.0 0.0 0
M  V30 34 C 1.732 -1.5 0.0 0
M  V30 35 O 4.3344 6.852 0.0 0
M  V30 36 O 0.866 1.0 0.0 0
M  V30 37 O 0.0 -0.5 0.0 0
M  V30 38 C 3.3399 6.7475 0.0 0
M  V30 END ATOM
M  V30 BEGIN BOND
M  V30 1 1 1 2
M  V30 2 1 2 3
M  V30 3 1 2 4
M  V30 4 1 2 5
M  V30 5 1 5 6
M  V30 6 2 6 7
M  V30 7 1 6 8
M  V30 8 1 7 9
M  V30 9 2 8 10
M  V30 10 2 9 11
M  V30 11 1 9 12
M  V30 12 1 11 13
M  V30 13 2 12 14
M  V30 14 1 12 15
M  V30 15 1 13 16
M  V30 16 1 14 17
M  V30 17 1 15 18
M  V30 18 2 16 19
M  V30 19 1 16 20
M  V30 20 2 18 21
M  V30 21 1 18 22
M  V30 22 2 20 23
M  V30 23 1 20 24
M  V30 24 1 21 25
M  V30 25 1 21 26
M  V30 26 2 22 27
M  V30 27 1 23 28
M  V30 28 2 24 29
M  V30 29 1 25 30
M  V30 30 2 26 31
M  V30 31 2 28 32
M  V30 32 1 30 33
M  V30 33 1 30 34 CFG=1
M  V30 34 1 32 35
M  V30 35 2 33 36
M  V30 36 1 33 37
M  V30 37 1 35 38
M  V30 38 1 10 11
M  V30 39 1 13 14
M  V30 40 1 27 31
M  V30 41 1 29 32
M  V30 END BOND
M  V30 BEGIN COLLECTION
M  V30 MDLV30/STEABS ATOMS=(1 30)
M  V30 END COLLECTION
M  V30 END CTAB
M  END
>  <Molecule ChEMBL ID>
CHEMBL181937

>  <Smiles>
COc1ccc(C(=O)n2c(C)c(Cc3ccccc3O[C@@H](C)C(=O)O)c3cc(OC(F)(F)F)ccc32)cc1

>  <IC50_nM>
2

>  <Assay Description>
In vitro inhibition of human Peroxisome proliferator activated receptor gamma

$$$$
CHEMBL3699370
Actelion Java MolfileCreator 2.0

  0  0  0  0  0  0              0 V3000
M  V30 BEGIN CTAB
M  V30 COUNTS 44 48 0 0 0
M  V30 BEGIN ATOM
M  V30 1 F 6.5621 -1.1339 0.0 0
M  V30 2 C 6.0621 -1.9999 0.0 0
M  V30 3 F 6.9282 -2.5 0.0 0
M  V30 4 F 5.5621 -2.866 0.0 0
M  V30 5 C 5.1961 -1.4999 0.0 0
M  V30 6 C 5.1961 -0.5 0.0 0
M  V30 7 C 4.3301 -1.9999 0.0 0
M  V30 8 C 4.3301 0.0 0.0 0
M  V30 9 C 3.4641 -1.5 0.0 0
M  V30 10 O 4.3301 1.0 0.0 0
M  V30 11 C 3.4641 -0.5 0.0 0
M  V30 12 C 3.4641 1.5 0.0 0
M  V30 13 C 2.598 0.0 0.0 0 CFG=2
M  V30 14 N 1.732 -0.5 0.0 0
M  V30 15 C 2.598 1.0 0.0 0
M  V30 16 C 0.866 0.0 0.0 0
M  V30 17 O 0.866 1.0 0.0 0
M  V30 18 C 0.0 -0.5 0.0 0
M  V30 19 C 0.0 -1.4999 0.0 0
M  V30 20 C -0.866 0.0 0.0 0
M  V30 21 C -0.866 -1.9999 0.0 0
M  V30 22 C -1.732 -0.4999 0.0 0
M  V30 23 C -1.732 -1.4999 0.0 0
M  V30 24 C -1.0739 -2.9781 0.0 0
M  V30 25 N -2.4751 -2.1691 0.0 0
M  V30 26 C -2.0684 -3.0826 0.0 0
M  V30 27 C -0.4048 -3.7212 0.0 0
M  V30 28 C -3.4533 -1.9612 0.0 0
M  V30 29 C -2.5684 -3.9487 0.0 0
M  V30 30 C -4.1224 -2.7043 0.0 0
M  V30 31 C -5.1006 -2.4964 0.0 0
M  V30 32 C -3.8134 -3.6554 0.0 0
M  V30 33 C -5.7697 -3.2395 0.0 0
M  V30 34 C -4.4825 -4.3985 0.0 0
M  V30 35 C -5.4607 -4.1906 0.0 0
M  V30 36 C -6.1298 -4.9337 0.0 0
M  V30 37 C -7.108 -4.7258 0.0 0
M  V30 38 C -5.8208 -5.8848 0.0 0
M  V30 39 C -7.417 -3.7748 0.0 0
M  V30 40 C -7.7771 -5.469 0.0 0
M  V30 41 C -6.4899 -6.6279 0.0 0
M  V30 42 O -6.7478 -3.0316 0.0 0
M  V30 43 O -8.3951 -3.5669 0.0 0
M  V30 44 C -7.4681 -6.42 0.0 0
M  V30 END ATOM
M  V30 BEGIN BOND
M  V30 1 1 1 2
M  V30 2 1 2 3
M  V30 3 1 2 4
M  V30 4 1 2 5
M  V30 5 2 5 6
M  V30 6 1 5 7
M  V30 7 1 6 8
M  V30 8 2 7 9
M  V30 9 1 8 10
M  V30 10 2 8 11
M  V30 11 1 10 12
M  V30 12 1 11 13
M  V30 13 1 13 14
M  V30 14 1 13 15 CFG=3
M  V30 15 1 14 16
M  V30 16 2 16 17
M  V30 17 1 16 18
M  V30 18 2 18 19
M  V30 19 1 18 20
M  V30 20 1 19 21
M  V30 21 2 20 22
M  V30 22 2 21 23
M  V30 23 1 21 24
M  V30 24 1 23 25
M  V30 25 2 24 26
M  V30 26 1 24 27
M  V30 27 1 25 28
M  V30 28 1 26 29
M  V30 29 1 28 30
M  V30 30 2 30 31
M  V30 31 1 30 32
M  V30 32 1 31 33
M  V30 33 2 32 34
M  V30 34 2 33 35
M  V30 35 1 35 36
M  V30 36 2 36 37
M  V30 37 1 36 38
M  V30 38 1 37 39
M  V30 39 1 37 40
M  V30 40 2 38 41
M  V30 41 2 39 42
M  V30 42 1 39 43
M  V30 43 2 40 44
M  V30 44 1 9 11
M  V30 45 1 22 23
M  V30 46 1 25 26
M  V30 47 1 34 35
M  V30 48 1 41 44
M  V30 END BOND
M  V30 BEGIN COLLECTION
M  V30 MDLV30/STEABS ATOMS=(1 13)
M  V30 END COLLECTION
M  V30 END CTAB
M  END
>  <Molecule ChEMBL ID>
CHEMBL3699370

>  <Smiles>
COc1cc(C(F)(F)F)ccc1[C@@H](C)NC(=O)c1ccc2c(c1)c(C)c(C)n2Cc1ccc(-c2ccccc2C(=O)O)cc1

>  <IC50_nM>
2

>  <Assay Description>
Lanthascreen Competitive Binding Assay: The assay was performed according to manufacturer protocol. A mixture of nM GST-PPARG-LBD, 5 nM Tb-GST-antibody, 5 nM Fluormone Pan-PPAR Green, and serial dilutions of the experimental compound, beginning at 10 ׬M downwards, was added to wells of black 384-well low-volume plates (Greiner) to a total volume of 18 ׬L. All dilutions were made in TR-FRET assay buffer C. DMSO at 2% final concentration was used as a no-ligand control. Experiment was performed in triplicate, and incubated for 2 hours in the dark prior to assay read in Perkin Elmer ViewLux ultra HTS microplate reader. FRET signal was measured by excitation at 340 nm and emission at 520 nm for fluorescein and 490 nm for terbium. Fold change over DMSO was calculated using GraphPad Prism Software (La Jolla, Calif.) by calculating 520 nm/490 nm ratio. Graphs were plotted as fold change of FRET signal for compound treatment over DMSO-only control.

$$$$
CHEMBL3695857
Actelion Java MolfileCreator 2.0

  0  0  0  0  0  0              0 V3000
M  V30 BEGIN CTAB
M  V30 COUNTS 38 42 0 0 0
M  V30 BEGIN ATOM
M  V30 1 O 11.1837 5.7369 0.0 0
M  V30 2 C 10.8747 4.7859 0.0 0
M  V30 3 O 9.8965 4.578 0.0 0
M  V30 4 C 11.5438 4.0427 0.0 0
M  V30 5 C 11.2348 3.0917 0.0 0
M  V30 6 C 12.522 4.2506 0.0 0
M  V30 7 C 10.2566 2.8838 0.0 0
M  V30 8 C 11.9039 2.3485 0.0 0
M  V30 9 C 13.1911 3.5075 0.0 0
M  V30 10 C 9.5875 3.6269 0.0 0
M  V30 11 C 9.9476 1.9327 0.0 0
M  V30 12 C 12.8821 2.5564 0.0 0
M  V30 13 C 8.6094 3.419 0.0 0
M  V30 14 C 8.9695 1.7248 0.0 0
M  V30 15 C 8.3003 2.4679 0.0 0
M  V30 16 C 7.3222 2.26 0.0 0
M  V30 17 N 7.0132 1.309 0.0 0
M  V30 18 C 6.0621 0.9999 0.0 0
M  V30 19 C 7.601 0.5 0.0 0
M  V30 20 C 6.0621 0.0 0.0 0
M  V30 21 C 5.1961 1.4999 0.0 0
M  V30 22 C 7.0132 -0.309 0.0 0
M  V30 23 C 5.1961 -0.5 0.0 0
M  V30 24 C 4.3301 0.9999 0.0 0
M  V30 25 C 7.3222 -1.26 0.0 0
M  V30 26 C 4.3301 0.0 0.0 0
M  V30 27 C 3.4641 -0.5 0.0 0
M  V30 28 O 3.4641 -1.5 0.0 0
M  V30 29 N 2.598 0.0 0.0 0
M  V30 30 C 1.732 -0.5 0.0 0 CFG=2
M  V30 31 C 1.732 -1.5 0.0 0
M  V30 32 C 0.866 0.0 0.0 0
M  V30 33 C 0.866 -1.9999 0.0 0
M  V30 34 C 2.598 -2.0 0.0 0
M  V30 35 C 0.0 -0.5 0.0 0
M  V30 36 C 0.866 -2.9999 0.0 0
M  V30 37 C 2.598 -3.0 0.0 0
M  V30 38 C 1.732 -3.5 0.0 0
M  V30 END ATOM
M  V30 BEGIN BOND
M  V30 1 2 1 2
M  V30 2 1 2 3
M  V30 3 1 2 4
M  V30 4 2 4 5
M  V30 5 1 4 6
M  V30 6 1 5 7
M  V30 7 1 5 8
M  V30 8 2 6 9
M  V30 9 2 7 10
M  V30 10 1 7 11
M  V30 11 2 8 12
M  V30 12 1 10 13
M  V30 13 2 11 14
M  V30 14 2 13 15
M  V30 15 1 15 16
M  V30 16 1 16 17
M  V30 17 1 17 18
M  V30 18 1 17 19
M  V30 19 2 18 20
M  V30 20 1 18 21
M  V30 21 2 19 22
M  V30 22 1 20 23
M  V30 23 2 21 24
M  V30 24 1 22 25
M  V30 25 2 23 26
M  V30 26 1 26 27
M  V30 27 2 27 28
M  V30 28 1 27 29
M  V30 29 1 30 29 CFG=3
M  V30 30 1 30 31
M  V30 31 1 30 32
M  V30 32 2 31 33
M  V30 33 1 31 34
M  V30 34 1 32 35
M  V30 35 1 33 36
M  V30 36 2 34 37
M  V30 37 2 36 38
M  V30 38 1 9 12
M  V30 39 1 14 15
M  V30 40 1 20 22
M  V30 41 1 24 26
M  V30 42 1 37 38
M  V30 END BOND
M  V30 BEGIN COLLECTION
M  V30 MDLV30/STERAC1 ATOMS=(1 30)
M  V30 END COLLECTION
M  V30 END CTAB
M  END
>  <Molecule ChEMBL ID>
CHEMBL3695857

>  <Smiles>
CCC(NC(=O)c1ccc2c(c1)c(C)cn2Cc1ccc(-c2ccccc2C(=O)O)cc1)c1ccccc1

>  <IC50_nM>
2

>  <Assay Description>
Lanthascreen Competitive Binding Assay: The assay was performed according to manufacturer protocol. A mixture of nM GST-PPARG-LBD, 5 nM Tb-GST-antibody, 5 nM Fluormone Pan-PPAR Green, and serial dilutions of the experimental compound, beginning at 10 ׬M downwards, was added to wells of black 384-well low-volume plates (Greiner) to a total volume of 18 ׬L. All dilutions were made in TR-FRET assay buffer C. DMSO at 2% final concentration was used as a no-ligand control. Experiment was performed in triplicate, and incubated for 2 hours in the dark prior to assay read in Perkin Elmer ViewLux ultra HTS microplate reader. FRET signal was measured by excitation at 340 nm and emission at 520 nm for fluorescein and 490 nm for terbium. Fold change over DMSO was calculated using GraphPad Prism Software (La Jolla, Calif.) by calculating 520 nm/490 nm ratio. Graphs were plotted as fold change of FRET signal for compound treatment over DMSO-only control.

$$$$
CHEMBL3695867
Actelion Java MolfileCreator 2.0

  0  0  0  0  0  0              0 V3000
M  V30 BEGIN CTAB
M  V30 COUNTS 35 39 0 0 0
M  V30 BEGIN ATOM
M  V30 1 O 2.598 -0.75 0.0 0
M  V30 2 C 3.8971 0.0 0.0 0
M  V30 3 N 5.1961 -0.7499 0.0 0
M  V30 4 C 3.8971 1.5 0.0 0
M  V30 5 C 6.4951 0.0 0.0 0 CFG=2
M  V30 6 C 2.598 2.25 0.0 0
M  V30 7 C 5.1961 2.25 0.0 0
M  V30 8 C 7.7942 -0.7499 0.0 0
M  V30 9 C 6.4951 1.5 0.0 0
M  V30 10 C 2.598 3.75 0.0 0
M  V30 11 C 5.1961 3.75 0.0 0
M  V30 12 N 7.7942 -2.2499 0.0 0
M  V30 13 C 9.0932 0.0 0.0 0
M  V30 14 C 3.8971 4.5 0.0 0
M  V30 15 C 1.4833 4.7536 0.0 0
M  V30 16 C 9.0932 -2.9999 0.0 0
M  V30 17 C 10.3923 -0.7499 0.0 0
M  V30 18 N 3.5852 5.9672 0.0 0
M  V30 19 C 2.0934 6.124 0.0 0
M  V30 20 C 0.0161 4.4418 0.0 0
M  V30 21 C 10.3923 -2.2499 0.0 0
M  V30 22 C 4.5889 7.0819 0.0 0
M  V30 23 C 1.3434 7.423 0.0 0
M  V30 24 C 4.1254 8.5085 0.0 0
M  V30 25 C 5.1291 9.6232 0.0 0
M  V30 26 C 2.6581 8.8203 0.0 0
M  V30 27 C 4.6655 11.0498 0.0 0
M  V30 28 C 2.1946 10.2469 0.0 0
M  V30 29 C 3.1983 11.3616 0.0 0
M  V30 30 C 2.7348 12.7882 0.0 0
M  V30 31 C 3.7385 13.9029 0.0 0
M  V30 32 C 1.2676 13.1001 0.0 0
M  V30 33 C 3.275 15.3295 0.0 0
M  V30 34 C 0.804 14.5267 0.0 0
M  V30 35 C 1.8077 15.6414 0.0 0
M  V30 END ATOM
M  V30 BEGIN BOND
M  V30 1 2 1 2
M  V30 2 1 2 3
M  V30 3 1 2 4
M  V30 4 1 3 5
M  V30 5 2 4 6
M  V30 6 1 4 7
M  V30 7 1 5 8
M  V30 8 1 5 9 CFG=1
M  V30 9 1 6 10
M  V30 10 2 7 11
M  V30 11 2 8 12
M  V30 12 1 8 13
M  V30 13 2 10 14
M  V30 14 1 10 15
M  V30 15 1 12 16
M  V30 16 2 13 17
M  V30 17 1 14 18
M  V30 18 2 15 19
M  V30 19 1 15 20
M  V30 20 2 16 21
M  V30 21 1 18 22
M  V30 22 1 19 23
M  V30 23 1 22 24
M  V30 24 2 24 25
M  V30 25 1 24 26
M  V30 26 1 25 27
M  V30 27 2 26 28
M  V30 28 2 27 29
M  V30 29 1 29 30
M  V30 30 2 30 31
M  V30 31 1 30 32
M  V30 32 1 31 33
M  V30 33 2 32 34
M  V30 34 2 33 35
M  V30 35 1 11 14
M  V30 36 1 17 21
M  V30 37 1 18 19
M  V30 38 1 28 29
M  V30 39 1 34 35
M  V30 END BOND
M  V30 BEGIN COLLECTION
M  V30 MDLV30/STEABS ATOMS=(1 5)
M  V30 END COLLECTION
M  V30 END CTAB
M  END
>  <Molecule ChEMBL ID>
CHEMBL3695867

>  <Smiles>
Cc1c(C)n(Cc2ccc(-c3ccccc3)cc2)c2ccc(C(=O)N[C@@H](C)c3ccccn3)cc12

>  <IC50_nM>
2

>  <Assay Description>
Lanthascreen Competitive Binding Assay: The assay was performed according to manufacturer protocol. A mixture of nM GST-PPARG-LBD, 5 nM Tb-GST-antibody, 5 nM Fluormone Pan-PPAR Green, and serial dilutions of the experimental compound, beginning at 10 ׬M downwards, was added to wells of black 384-well low-volume plates (Greiner) to a total volume of 18 ׬L. All dilutions were made in TR-FRET assay buffer C. DMSO at 2% final concentration was used as a no-ligand control. Experiment was performed in triplicate, and incubated for 2 hours in the dark prior to assay read in Perkin Elmer ViewLux ultra HTS microplate reader. FRET signal was measured by excitation at 340 nm and emission at 520 nm for fluorescein and 490 nm for terbium. Fold change over DMSO was calculated using GraphPad Prism Software (La Jolla, Calif.) by calculating 520 nm/490 nm ratio. Graphs were plotted as fold change of FRET signal for compound treatment over DMSO-only control.

$$$$
CHEMBL364894
Actelion Java MolfileCreator 2.0

  0  0  0  0  0  0              0 V3000
M  V30 BEGIN CTAB
M  V30 COUNTS 40 44 0 0 0
M  V30 BEGIN ATOM
M  V30 1 Cl 6.0621 -1.9999 0.0 0
M  V30 2 C 5.1961 -1.4999 0.0 0
M  V30 3 C 5.1961 -0.5 0.0 0
M  V30 4 C 4.3301 -1.9999 0.0 0
M  V30 5 C 4.3301 0.0 0.0 0
M  V30 6 C 6.0621 0.0 0.0 0
M  V30 7 C 3.4641 -1.5 0.0 0
M  V30 8 C 3.4641 -0.5 0.0 0
M  V30 9 C 6.0621 0.9999 0.0 0
M  V30 10 O 2.598 0.0 0.0 0
M  V30 11 C 6.8711 1.5877 0.0 0
M  V30 12 C 5.2531 1.5877 0.0 0
M  V30 13 C 1.732 -0.5 0.0 0 CFG=1
M  V30 14 C 6.5621 2.5388 0.0 0
M  V30 15 C 7.8493 1.3798 0.0 0
M  V30 16 N 5.5621 2.5388 0.0 0
M  V30 17 C 4.3021 1.2787 0.0 0
M  V30 18 C 0.866 0.0 0.0 0
M  V30 19 C 1.732 -1.5 0.0 0
M  V30 20 C 7.2313 3.2819 0.0 0
M  V30 21 C 8.5184 2.123 0.0 0
M  V30 22 C 4.9743 3.3478 0.0 0
M  V30 23 O 0.866 1.0 0.0 0
M  V30 24 O 0.0 -0.5 0.0 0
M  V30 25 C 8.2094 3.074 0.0 0
M  V30 26 O 9.4966 1.9151 0.0 0
M  V30 27 N 5.2834 4.2989 0.0 0
M  V30 28 C 3.9743 3.3478 0.0 0
M  V30 29 C 10.1657 2.6582 0.0 0
M  V30 30 O 4.4743 4.8867 0.0 0
M  V30 31 C 3.6653 4.2989 0.0 0
M  V30 32 C 3.3052 2.6047 0.0 0
M  V30 33 F 9.4226 3.3273 0.0 0
M  V30 34 F 10.8348 3.4013 0.0 0
M  V30 35 F 10.9088 1.9891 0.0 0
M  V30 36 C 2.6872 4.5068 0.0 0
M  V30 37 C 2.3271 2.8126 0.0 0
M  V30 38 C 2.018 3.7636 0.0 0
M  V30 39 O 1.0399 3.9715 0.0 0
M  V30 40 C 0.3708 3.2284 0.0 0
M  V30 END ATOM
M  V30 BEGIN BOND
M  V30 1 1 1 2
M  V30 2 2 2 3
M  V30 3 1 2 4
M  V30 4 1 3 5
M  V30 5 1 3 6
M  V30 6 2 4 7
M  V30 7 2 5 8
M  V30 8 1 6 9
M  V30 9 1 8 10
M  V30 10 1 9 11
M  V30 11 2 9 12
M  V30 12 1 10 13
M  V30 13 2 11 14
M  V30 14 1 11 15
M  V30 15 1 12 16
M  V30 16 1 12 17
M  V30 17 1 13 18
M  V30 18 1 13 19 CFG=3
M  V30 19 1 14 20
M  V30 20 2 15 21
M  V30 21 1 16 22
M  V30 22 2 18 23
M  V30 23 1 18 24
M  V30 24 2 20 25
M  V30 25 1 21 26
M  V30 26 2 22 27
M  V30 27 1 22 28
M  V30 28 1 26 29
M  V30 29 1 27 30
M  V30 30 2 28 31
M  V30 31 1 28 32
M  V30 32 1 29 33
M  V30 33 1 29 34
M  V30 34 1 29 35
M  V30 35 1 31 36
M  V30 36 2 32 37
M  V30 37 2 36 38
M  V30 38 1 38 39
M  V30 39 1 39 40
M  V30 40 1 7 8
M  V30 41 1 14 16
M  V30 42 1 21 25
M  V30 43 1 30 31
M  V30 44 1 37 38
M  V30 END BOND
M  V30 BEGIN COLLECTION
M  V30 MDLV30/STEABS ATOMS=(1 13)
M  V30 END COLLECTION
M  V30 END CTAB
M  END
>  <Molecule ChEMBL ID>
CHEMBL364894

>  <Smiles>
COc1ccc2c(-n3c(C)c(Cc4cc(O[C@H](C)C(=O)O)ccc4Cl)c4cc(OC(F)(F)F)ccc43)noc2c1

>  <IC50_nM>
2

>  <Assay Description>
Inhibition of human peroxisome proliferator activated receptor gamma binding

$$$$
CHEMBL482740
Actelion Java MolfileCreator 2.0

  0  0  0  0  0  0              0 V3000
M  V30 BEGIN CTAB
M  V30 COUNTS 36 39 0 0 0
M  V30 BEGIN ATOM
M  V30 1 S 7.051 1.6691 0.0 0
M  V30 2 C 7.7942 1.0 0.0 0
M  V30 3 C 7.4578 2.5826 0.0 0
M  V30 4 C 7.7942 0.0 0.0 0
M  V30 5 C 8.6602 1.5 0.0 0
M  V30 6 C 8.4523 2.4781 0.0 0
M  V30 7 C 8.6602 -0.4999 0.0 0
M  V30 8 C 6.9282 -0.5 0.0 0
M  V30 9 C 9.5262 1.0 0.0 0
M  V30 10 C 9.5262 0.0 0.0 0
M  V30 11 C 6.9282 -1.4999 0.0 0 CFG=2
M  V30 12 O 10.3923 1.5 0.0 0
M  V30 13 O 6.0621 -2.0 0.0 0
M  V30 14 C 7.7942 -1.9999 0.0 0
M  V30 15 C 10.3923 2.5 0.0 0
M  V30 16 C 6.0621 -3.0 0.0 0
M  V30 17 O 8.6602 -1.4999 0.0 0
M  V30 18 O 7.7942 -2.9999 0.0 0
M  V30 19 C 11.2583 3.0 0.0 0
M  V30 20 C 5.1961 -3.5 0.0 0
M  V30 21 C 11.2583 4.0 0.0 0
M  V30 22 C 5.1961 -4.5 0.0 0
M  V30 23 N 12.0673 4.5877 0.0 0
M  V30 24 C 10.4493 4.5877 0.0 0
M  V30 25 C 4.3301 -5.0 0.0 0
M  V30 26 C 11.7583 5.5388 0.0 0
M  V30 27 O 10.7583 5.5388 0.0 0
M  V30 28 C 9.4982 4.2787 0.0 0
M  V30 29 C 4.3301 -6.0 0.0 0
M  V30 30 C 12.3461 6.3478 0.0 0
M  V30 31 C 3.4641 -6.5 0.0 0
M  V30 32 C 13.3406 6.2433 0.0 0
M  V30 33 C 11.9393 7.2614 0.0 0
M  V30 34 C 13.9284 7.0523 0.0 0
M  V30 35 C 12.5271 8.0704 0.0 0
M  V30 36 C 13.5216 7.9658 0.0 0
M  V30 END ATOM
M  V30 BEGIN BOND
M  V30 1 1 1 2
M  V30 2 1 1 3
M  V30 3 2 2 4
M  V30 4 1 2 5
M  V30 5 2 3 6
M  V30 6 1 4 7
M  V30 7 1 4 8
M  V30 8 2 5 9
M  V30 9 2 7 10
M  V30 10 1 8 11
M  V30 11 1 9 12
M  V30 12 1 11 13 CFG=1
M  V30 13 1 11 14
M  V30 14 1 12 15
M  V30 15 1 13 16
M  V30 16 2 14 17
M  V30 17 1 14 18
M  V30 18 1 15 19
M  V30 19 1 16 20
M  V30 20 1 19 21
M  V30 21 1 20 22
M  V30 22 1 21 23
M  V30 23 2 21 24
M  V30 24 1 22 25
M  V30 25 2 23 26
M  V30 26 1 24 27
M  V30 27 1 24 28
M  V30 28 1 25 29
M  V30 29 1 26 30
M  V30 30 1 29 31
M  V30 31 2 30 32
M  V30 32 1 30 33
M  V30 33 1 32 34
M  V30 34 2 33 35
M  V30 35 2 34 36
M  V30 36 1 5 6
M  V30 37 1 9 10
M  V30 38 1 26 27
M  V30 39 1 35 36
M  V30 END BOND
M  V30 BEGIN COLLECTION
M  V30 MDLV30/STERAC1 ATOMS=(1 11)
M  V30 END COLLECTION
M  V30 END CTAB
M  END
>  <Molecule ChEMBL ID>
CHEMBL482740

>  <Smiles>
CCCCCCOC(Cc1ccc(OCCc2nc(-c3ccccc3)oc2C)c2ccsc12)C(=O)O

>  <IC50_nM>
2

>  <Assay Description>
Displacement of radio labeled 2(S)-(2-benzoyl-phenylamino)-3-{4-[1,1-ditritio-2-(5-methyl-2-phenyl-oxazol-4-yl)-ethoxy]-phenyl}-propionic acid from GST-fused human PPARgamma expressed in Escherichia coli BL21 cells by scintillation proximity assay

$$$$
CHEMBL519060
Actelion Java MolfileCreator 2.0

  0  0  0  0  0  0              0 V3000
M  V30 BEGIN CTAB
M  V30 COUNTS 40 44 0 0 0
M  V30 BEGIN ATOM
M  V30 1 Cl 6.0621 -1.9999 0.0 0
M  V30 2 C 5.1961 -1.4999 0.0 0
M  V30 3 C 5.1961 -0.5 0.0 0
M  V30 4 C 4.3301 -1.9999 0.0 0
M  V30 5 C 4.3301 0.0 0.0 0
M  V30 6 C 6.0621 0.0 0.0 0
M  V30 7 C 3.4641 -1.5 0.0 0
M  V30 8 C 3.4641 -0.5 0.0 0
M  V30 9 N 6.0621 0.9999 0.0 0
M  V30 10 O 2.598 0.0 0.0 0
M  V30 11 C 6.8711 1.5877 0.0 0
M  V30 12 C 5.2531 1.5877 0.0 0
M  V30 13 C 1.732 -0.5 0.0 0 CFG=2
M  V30 14 C 6.5621 2.5388 0.0 0
M  V30 15 C 7.8493 1.3798 0.0 0
M  V30 16 C 5.5621 2.5388 0.0 0
M  V30 17 C 4.3021 1.2787 0.0 0
M  V30 18 C 0.866 0.0 0.0 0
M  V30 19 C 1.732 -1.5 0.0 0
M  V30 20 C 7.2313 3.2819 0.0 0
M  V30 21 C 8.5184 2.123 0.0 0
M  V30 22 C 4.9743 3.3478 0.0 0
M  V30 23 O 0.866 1.0 0.0 0
M  V30 24 O 0.0 -0.5 0.0 0
M  V30 25 C 8.2094 3.074 0.0 0
M  V30 26 O 9.4966 1.9151 0.0 0
M  V30 27 N 5.2834 4.2989 0.0 0
M  V30 28 C 3.9743 3.3478 0.0 0
M  V30 29 C 10.1657 2.6582 0.0 0
M  V30 30 O 4.4743 4.8867 0.0 0
M  V30 31 C 3.6653 4.2989 0.0 0
M  V30 32 C 3.3052 2.6047 0.0 0
M  V30 33 F 9.4226 3.3273 0.0 0
M  V30 34 F 10.8348 3.4013 0.0 0
M  V30 35 F 10.9088 1.9891 0.0 0
M  V30 36 C 2.6872 4.5068 0.0 0
M  V30 37 C 2.3271 2.8126 0.0 0
M  V30 38 C 2.018 3.7636 0.0 0
M  V30 39 O 1.0399 3.9715 0.0 0
M  V30 40 C 0.3708 3.2284 0.0 0
M  V30 END ATOM
M  V30 BEGIN BOND
M  V30 1 1 1 2
M  V30 2 2 2 3
M  V30 3 1 2 4
M  V30 4 1 3 5
M  V30 5 1 3 6
M  V30 6 2 4 7
M  V30 7 2 5 8
M  V30 8 1 6 9
M  V30 9 1 8 10
M  V30 10 1 9 11
M  V30 11 1 9 12
M  V30 12 1 10 13
M  V30 13 2 11 14
M  V30 14 1 11 15
M  V30 15 2 12 16
M  V30 16 1 12 17
M  V30 17 1 13 18
M  V30 18 1 13 19 CFG=1
M  V30 19 1 14 20
M  V30 20 2 15 21
M  V30 21 1 16 22
M  V30 22 2 18 23
M  V30 23 1 18 24
M  V30 24 2 20 25
M  V30 25 1 21 26
M  V30 26 2 22 27
M  V30 27 1 22 28
M  V30 28 1 26 29
M  V30 29 1 27 30
M  V30 30 2 28 31
M  V30 31 1 28 32
M  V30 32 1 29 33
M  V30 33 1 29 34
M  V30 34 1 29 35
M  V30 35 1 31 36
M  V30 36 2 32 37
M  V30 37 2 36 38
M  V30 38 1 38 39
M  V30 39 1 39 40
M  V30 40 1 7 8
M  V30 41 1 14 16
M  V30 42 1 21 25
M  V30 43 1 30 31
M  V30 44 1 37 38
M  V30 END BOND
M  V30 BEGIN COLLECTION
M  V30 MDLV30/STEABS ATOMS=(1 13)
M  V30 END COLLECTION
M  V30 END CTAB
M  END
>  <Molecule ChEMBL ID>
CHEMBL519060

>  <Smiles>
COc1ccc2c(-c3c(C)n(Cc4cc(O[C@@H](C)C(=O)O)ccc4Cl)c4cc(OC(F)(F)F)ccc34)noc2c1

>  <IC50_nM>
2

>  <Assay Description>
Displacement of [3H2]nTZD3 from human recombinant GST-fused PPARgamma expressed in Escherichia coli by scintillation proximity assay

$$$$
CHEMBL460073
Actelion Java MolfileCreator 2.0

  0  0  0  0  0  0              0 V3000
M  V30 BEGIN CTAB
M  V30 COUNTS 36 39 0 0 0
M  V30 BEGIN ATOM
M  V30 1 Cl 6.0621 -1.9999 0.0 0
M  V30 2 C 5.1961 -1.4999 0.0 0
M  V30 3 C 5.1961 -0.5 0.0 0
M  V30 4 C 4.3301 -1.9999 0.0 0
M  V30 5 C 4.3301 0.0 0.0 0
M  V30 6 C 6.0621 0.0 0.0 0
M  V30 7 C 3.4641 -1.5 0.0 0
M  V30 8 C 3.4641 -0.5 0.0 0
M  V30 9 N 6.0621 0.9999 0.0 0
M  V30 10 O 2.598 0.0 0.0 0
M  V30 11 C 6.8711 1.5877 0.0 0
M  V30 12 C 5.2531 1.5877 0.0 0
M  V30 13 C 1.732 -0.5 0.0 0 CFG=2
M  V30 14 N 7.8493 1.3798 0.0 0
M  V30 15 C 6.5621 2.5388 0.0 0
M  V30 16 C 5.5621 2.5388 0.0 0
M  V30 17 C 4.3021 1.2787 0.0 0
M  V30 18 C 0.866 0.0 0.0 0
M  V30 19 C 1.732 -1.5 0.0 0
M  V30 20 C 8.5184 2.123 0.0 0
M  V30 21 C 7.2313 3.2819 0.0 0
M  V30 22 C 4.9743 3.3478 0.0 0
M  V30 23 O 0.866 1.0 0.0 0
M  V30 24 O 0.0 -0.5 0.0 0
M  V30 25 O 9.4966 1.9151 0.0 0
M  V30 26 C 8.2094 3.074 0.0 0
M  V30 27 O 5.3811 4.2614 0.0 0
M  V30 28 C 3.9798 3.2433 0.0 0
M  V30 29 C 10.1657 2.6582 0.0 0
M  V30 30 C 3.392 4.0523 0.0 0
M  V30 31 C 3.5731 2.3297 0.0 0
M  V30 32 C 2.3975 3.9478 0.0 0
M  V30 33 C 2.5786 2.2252 0.0 0
M  V30 34 C 1.9908 3.0342 0.0 0
M  V30 35 O 0.9963 2.9297 0.0 0
M  V30 36 C 0.5895 2.0161 0.0 0
M  V30 END ATOM
M  V30 BEGIN BOND
M  V30 1 1 1 2
M  V30 2 2 2 3
M  V30 3 1 2 4
M  V30 4 1 3 5
M  V30 5 1 3 6
M  V30 6 2 4 7
M  V30 7 2 5 8
M  V30 8 1 6 9
M  V30 9 1 8 10
M  V30 10 1 9 11
M  V30 11 1 9 12
M  V30 12 1 10 13
M  V30 13 2 11 14
M  V30 14 1 11 15
M  V30 15 2 12 16
M  V30 16 1 12 17
M  V30 17 1 13 18
M  V30 18 1 13 19 CFG=1
M  V30 19 1 14 20
M  V30 20 2 15 21
M  V30 21 1 16 22
M  V30 22 2 18 23
M  V30 23 1 18 24
M  V30 24 1 20 25
M  V30 25 2 20 26
M  V30 26 2 22 27
M  V30 27 1 22 28
M  V30 28 1 25 29
M  V30 29 2 28 30
M  V30 30 1 28 31
M  V30 31 1 30 32
M  V30 32 2 31 33
M  V30 33 2 32 34
M  V30 34 1 34 35
M  V30 35 1 35 36
M  V30 36 1 7 8
M  V30 37 1 15 16
M  V30 38 1 21 26
M  V30 39 1 33 34
M  V30 END BOND
M  V30 BEGIN COLLECTION
M  V30 MDLV30/STEABS ATOMS=(1 13)
M  V30 END COLLECTION
M  V30 END CTAB
M  END
>  <Molecule ChEMBL ID>
CHEMBL460073

>  <Smiles>
COc1ccc(C(=O)c2c(C)n(Cc3cc(O[C@@H](C)C(=O)O)ccc3Cl)c3nc(OC)ccc23)cc1

>  <IC50_nM>
2

>  <Assay Description>
Displacement of [3H]2AD-5075 from GST-tagged human PPARgamma receptor expressed in Escherichia coli BL21

$$$$
CHEMBL3695811
Actelion Java MolfileCreator 2.0

  0  0  0  0  0  0              0 V3000
M  V30 BEGIN CTAB
M  V30 COUNTS 41 45 0 0 0
M  V30 BEGIN ATOM
M  V30 1 O 6.0621 -3.0 0.0 0
M  V30 2 N 6.0621 -1.9999 0.0 0 CHG=1
M  V30 3 O 6.9282 -1.5 0.0 0 CHG=-1
M  V30 4 C 5.1961 -1.4999 0.0 0
M  V30 5 C 5.1961 -0.5 0.0 0
M  V30 6 C 4.3301 -1.9999 0.0 0
M  V30 7 C 4.3301 0.0 0.0 0
M  V30 8 C 3.4641 -1.5 0.0 0
M  V30 9 C 3.4641 -0.5 0.0 0
M  V30 10 C 2.598 0.0 0.0 0 CFG=2
M  V30 11 N 1.732 -0.5 0.0 0
M  V30 12 C 2.598 1.0 0.0 0
M  V30 13 C 0.866 0.0 0.0 0
M  V30 14 O 0.866 1.0 0.0 0
M  V30 15 C 0.0 -0.5 0.0 0
M  V30 16 C 0.0 -1.4999 0.0 0
M  V30 17 C -0.866 0.0 0.0 0
M  V30 18 C -0.866 -1.9999 0.0 0
M  V30 19 C -1.732 -0.4999 0.0 0
M  V30 20 C -1.732 -1.4999 0.0 0
M  V30 21 C -1.0739 -2.9781 0.0 0
M  V30 22 N -2.4751 -2.1691 0.0 0
M  V30 23 C -2.0684 -3.0826 0.0 0
M  V30 24 C -0.4048 -3.7212 0.0 0
M  V30 25 C -3.4533 -1.9612 0.0 0
M  V30 26 C -2.5684 -3.9487 0.0 0
M  V30 27 C -4.1224 -2.7043 0.0 0
M  V30 28 C -5.1006 -2.4964 0.0 0
M  V30 29 C -3.8134 -3.6554 0.0 0
M  V30 30 C -5.7697 -3.2395 0.0 0
M  V30 31 C -4.4825 -4.3985 0.0 0
M  V30 32 C -5.4607 -4.1906 0.0 0
M  V30 33 C -6.1298 -4.9337 0.0 0
M  V30 34 C -7.108 -4.7258 0.0 0
M  V30 35 C -5.8208 -5.8848 0.0 0
M  V30 36 C -7.417 -3.7748 0.0 0
M  V30 37 C -7.7771 -5.469 0.0 0
M  V30 38 C -6.4899 -6.6279 0.0 0
M  V30 39 O -6.7478 -3.0316 0.0 0
M  V30 40 O -8.3951 -3.5669 0.0 0
M  V30 41 C -7.4681 -6.42 0.0 0
M  V30 END ATOM
M  V30 BEGIN BOND
M  V30 1 2 1 2
M  V30 2 1 2 3
M  V30 3 1 2 4
M  V30 4 2 4 5
M  V30 5 1 4 6
M  V30 6 1 5 7
M  V30 7 2 6 8
M  V30 8 2 7 9
M  V30 9 1 9 10
M  V30 10 1 10 11
M  V30 11 1 10 12 CFG=3
M  V30 12 1 11 13
M  V30 13 2 13 14
M  V30 14 1 13 15
M  V30 15 2 15 16
M  V30 16 1 15 17
M  V30 17 1 16 18
M  V30 18 2 17 19
M  V30 19 2 18 20
M  V30 20 1 18 21
M  V30 21 1 20 22
M  V30 22 2 21 23
M  V30 23 1 21 24
M  V30 24 1 22 25
M  V30 25 1 23 26
M  V30 26 1 25 27
M  V30 27 2 27 28
M  V30 28 1 27 29
M  V30 29 1 28 30
M  V30 30 2 29 31
M  V30 31 2 30 32
M  V30 32 1 32 33
M  V30 33 2 33 34
M  V30 34 1 33 35
M  V30 35 1 34 36
M  V30 36 1 34 37
M  V30 37 2 35 38
M  V30 38 2 36 39
M  V30 39 1 36 40
M  V30 40 2 37 41
M  V30 41 1 8 9
M  V30 42 1 19 20
M  V30 43 1 22 23
M  V30 44 1 31 32
M  V30 45 1 38 41
M  V30 END BOND
M  V30 BEGIN COLLECTION
M  V30 MDLV30/STEABS ATOMS=(1 10)
M  V30 END COLLECTION
M  V30 END CTAB
M  END
>  <Molecule ChEMBL ID>
CHEMBL3695811

>  <Smiles>
Cc1c(C)n(Cc2ccc(-c3ccccc3C(=O)O)cc2)c2ccc(C(=O)N[C@H](C)c3ccc([N+](=O)[O-])cc3)cc12

>  <IC50_nM>
2

>  <Assay Description>
Lanthascreen Competitive Binding Assay: The assay was performed according to manufacturer protocol. A mixture of nM GST-PPARG-LBD, 5 nM Tb-GST-antibody, 5 nM Fluormone Pan-PPAR Green, and serial dilutions of the experimental compound, beginning at 10 ׬M downwards, was added to wells of black 384-well low-volume plates (Greiner) to a total volume of 18 ׬L. All dilutions were made in TR-FRET assay buffer C. DMSO at 2% final concentration was used as a no-ligand control. Experiment was performed in triplicate, and incubated for 2 hours in the dark prior to assay read in Perkin Elmer ViewLux ultra HTS microplate reader. FRET signal was measured by excitation at 340 nm and emission at 520 nm for fluorescein and 490 nm for terbium. Fold change over DMSO was calculated using GraphPad Prism Software (La Jolla, Calif.) by calculating 520 nm/490 nm ratio. Graphs were plotted as fold change of FRET signal for compound treatment over DMSO-only control.

$$$$
CHEMBL199244
Actelion Java MolfileCreator 2.0

  0  0  0  0  0  0              0 V3000
M  V30 BEGIN CTAB
M  V30 COUNTS 40 44 0 0 0
M  V30 BEGIN ATOM
M  V30 1 Cl 3.2214 -2.6159 0.0 0
M  V30 2 C 2.8147 -1.7024 0.0 0
M  V30 3 C 3.3147 -0.8364 0.0 0
M  V30 4 C 1.8365 -1.4945 0.0 0
M  V30 5 N 2.6455 -0.0932 0.0 0
M  V30 6 C 1.732 -0.5 0.0 0
M  V30 7 O 0.866 0.0 0.0 0
M  V30 8 C 0.0 -0.5 0.0 0
M  V30 9 C -0.866 0.0 0.0 0
M  V30 10 C 0.0 -1.5 0.0 0
M  V30 11 C -1.732 -0.4999 0.0 0
M  V30 12 C -0.866 -2.0 0.0 0
M  V30 13 C -2.6831 -0.1909 0.0 0
M  V30 14 C -1.732 -1.5 0.0 0
M  V30 15 O -2.9921 0.76 0.0 0
M  V30 16 C -3.2708 -0.9999 0.0 0
M  V30 17 N -2.6831 -1.809 0.0 0
M  V30 18 C -2.3229 1.5032 0.0 0
M  V30 19 C -4.2708 -0.9999 0.0 0
M  V30 20 C -2.9921 -2.76 0.0 0
M  V30 21 C -2.632 2.4542 0.0 0
M  V30 22 C -1.3448 1.2953 0.0 0
M  V30 23 O -4.7708 -0.1339 0.0 0
M  V30 24 O -4.7708 -1.866 0.0 0
M  V30 25 C -3.9702 -2.9679 0.0 0
M  V30 26 C -2.3229 -3.5032 0.0 0
M  V30 27 C -1.9628 3.1974 0.0 0
M  V30 28 C -0.6757 2.0384 0.0 0
M  V30 29 C -4.2792 -3.919 0.0 0
M  V30 30 C -2.632 -4.4542 0.0 0
M  V30 31 C -0.9847 2.9895 0.0 0
M  V30 32 C -2.2718 4.1484 0.0 0
M  V30 33 C -3.6101 -4.6621 0.0 0
M  V30 34 F -1.3208 4.4574 0.0 0
M  V30 35 F -2.5809 5.0995 0.0 0
M  V30 36 F -3.2229 3.8394 0.0 0
M  V30 37 C -3.9191 -5.6132 0.0 0
M  V30 38 C -2.9681 -5.9222 0.0 0
M  V30 39 C -4.2281 -6.5642 0.0 0
M  V30 40 C -4.8702 -5.3042 0.0 0
M  V30 END ATOM
M  V30 BEGIN BOND
M  V30 1 1 1 2
M  V30 2 2 2 3
M  V30 3 1 2 4
M  V30 4 1 3 5
M  V30 5 2 4 6
M  V30 6 1 6 7
M  V30 7 1 7 8
M  V30 8 2 8 9
M  V30 9 1 8 10
M  V30 10 1 9 11
M  V30 11 2 10 12
M  V30 12 1 11 13
M  V30 13 2 11 14
M  V30 14 1 13 15
M  V30 15 2 13 16
M  V30 16 1 14 17
M  V30 17 1 15 18
M  V30 18 1 16 19
M  V30 19 1 17 20
M  V30 20 2 18 21
M  V30 21 1 18 22
M  V30 22 2 19 23
M  V30 23 1 19 24
M  V30 24 2 20 25
M  V30 25 1 20 26
M  V30 26 1 21 27
M  V30 27 2 22 28
M  V30 28 1 25 29
M  V30 29 2 26 30
M  V30 30 2 27 31
M  V30 31 1 27 32
M  V30 32 2 29 33
M  V30 33 1 32 34
M  V30 34 1 32 35
M  V30 35 1 32 36
M  V30 36 1 33 37
M  V30 37 1 37 38
M  V30 38 1 37 39
M  V30 39 1 37 40
M  V30 40 1 5 6
M  V30 41 1 12 14
M  V30 42 1 16 17
M  V30 43 1 28 31
M  V30 44 1 30 33
M  V30 END BOND
M  V30 END CTAB
M  END
>  <Molecule ChEMBL ID>
CHEMBL199244

>  <Smiles>
CC(C)(C)c1ccc(-n2c(C(=O)O)c(Oc3cccc(C(F)(F)F)c3)c3cc(Oc4cc(Cl)c[nH]4)ccc32)cc1

>  <IC50_nM>
2

>  <Assay Description>
Inhibitory concentration against human peroxisome proliferator activated receptor gamma in SPA assay

$$$$
CHEMBL3639947
Actelion Java MolfileCreator 2.0

  0  0  0  0  0  0              0 V3000
M  V30 BEGIN CTAB
M  V30 COUNTS 38 42 0 0 0
M  V30 BEGIN ATOM
M  V30 1 Cl 9.0932 0.0 0.0 0
M  V30 2 C 7.7942 -0.75 0.0 0
M  V30 3 C 6.4951 0.0 0.0 0
M  V30 4 C 7.7942 -2.25 0.0 0
M  V30 5 C 5.1961 -0.75 0.0 0
M  V30 6 C 6.4951 -3.0 0.0 0
M  V30 7 C 5.1961 -2.25 0.0 0
M  V30 8 C 3.8971 0.0 0.0 0
M  V30 9 N 2.598 -0.75 0.0 0
M  V30 10 C 1.299 0.0 0.0 0
M  V30 11 O 1.299 1.5 0.0 0
M  V30 12 C 0.0 -0.75 0.0 0
M  V30 13 C 0.0 -2.25 0.0 0
M  V30 14 C -1.299 0.0 0.0 0
M  V30 15 C -1.299 -2.9999 0.0 0
M  V30 16 C -2.598 -0.7499 0.0 0
M  V30 17 C -2.598 -2.2499 0.0 0
M  V30 18 C -1.6109 -4.4672 0.0 0
M  V30 19 N -3.7127 -3.2536 0.0 0
M  V30 20 C -3.1026 -4.624 0.0 0
M  V30 21 C -0.6072 -5.5819 0.0 0
M  V30 22 C -5.18 -2.9418 0.0 0
M  V30 23 C -3.8526 -5.923 0.0 0
M  V30 24 C -6.1837 -4.0565 0.0 0
M  V30 25 C -7.6509 -3.7446 0.0 0
M  V30 26 C -5.7201 -5.4831 0.0 0
M  V30 27 C -8.6546 -4.8593 0.0 0
M  V30 28 C -6.7238 -6.5978 0.0 0
M  V30 29 C -8.1911 -6.2859 0.0 0
M  V30 30 C -9.1947 -7.4006 0.0 0
M  V30 31 C -10.662 -7.0888 0.0 0
M  V30 32 C -8.7312 -8.8272 0.0 0
M  V30 33 C -11.1255 -5.6622 0.0 0
M  V30 34 C -11.6657 -8.2035 0.0 0
M  V30 35 C -9.7349 -9.9419 0.0 0
M  V30 36 O -10.1218 -4.5475 0.0 0
M  V30 37 O -12.5927 -5.3503 0.0 0
M  V30 38 C -11.2021 -9.6301 0.0 0
M  V30 END ATOM
M  V30 BEGIN BOND
M  V30 1 1 1 2
M  V30 2 2 2 3
M  V30 3 1 2 4
M  V30 4 1 3 5
M  V30 5 2 4 6
M  V30 6 2 5 7
M  V30 7 1 5 8
M  V30 8 1 8 9
M  V30 9 1 9 10
M  V30 10 2 10 11
M  V30 11 1 10 12
M  V30 12 2 12 13
M  V30 13 1 12 14
M  V30 14 1 13 15
M  V30 15 2 14 16
M  V30 16 2 15 17
M  V30 17 1 15 18
M  V30 18 1 17 19
M  V30 19 2 18 20
M  V30 20 1 18 21
M  V30 21 1 19 22
M  V30 22 1 20 23
M  V30 23 1 22 24
M  V30 24 2 24 25
M  V30 25 1 24 26
M  V30 26 1 25 27
M  V30 27 2 26 28
M  V30 28 2 27 29
M  V30 29 1 29 30
M  V30 30 2 30 31
M  V30 31 1 30 32
M  V30 32 1 31 33
M  V30 33 1 31 34
M  V30 34 2 32 35
M  V30 35 2 33 36
M  V30 36 1 33 37
M  V30 37 2 34 38
M  V30 38 1 6 7
M  V30 39 1 16 17
M  V30 40 1 19 20
M  V30 41 1 28 29
M  V30 42 1 35 38
M  V30 END BOND
M  V30 END CTAB
M  END
>  <Molecule ChEMBL ID>
CHEMBL3639947

>  <Smiles>
Cc1c(C)n(Cc2ccc(-c3ccccc3C(=O)O)cc2)c2ccc(C(=O)NCc3cccc(Cl)c3)cc12

>  <IC50_nM>
2

>  <Assay Description>
Lanthascreen Competitive Binding Assay: The assay was performed according to manufacturer protocol. A mixture of nM GST-PPARG-LBD, 5 nM Tb-GST-antibody, 5 nM Fluormone Pan-PPAR Green, and serial dilutions of the experimental compound, beginning at 10 ׬M downwards, was added to wells of black 384-well low-volume plates (Greiner) to a total volume of 18 ׬L. All dilutions were made in TR-FRET assay buffer C. DMSO at 2% final concentration was used as a no-ligand control. Experiment was performed in triplicate, and incubated for 2 hours in the dark prior to assay read in Perkin Elmer ViewLux ultra HTS microplate reader. FRET signal was measured by excitation at 340 nm and emission at 520 nm for fluorescein and 490 nm for terbium. Fold change over DMSO was calculated using GraphPad Prism Software (La Jolla, Calif.) by calculating 520 nm/490 nm ratio. Graphs were plotted as fold change of FRET signal for compound treatment over DMSO-only control.

$$$$
CHEMBL484409
Actelion Java MolfileCreator 2.0

  0  0  0  0  0  0              0 V3000
M  V30 BEGIN CTAB
M  V30 COUNTS 34 37 0 0 0
M  V30 BEGIN ATOM
M  V30 1 S 4.1222 -2.9781 0.0 0
M  V30 2 C 4.3301 -2.0 0.0 0
M  V30 3 C 3.1276 -3.0826 0.0 0
M  V30 4 C 5.1961 -1.4999 0.0 0
M  V30 5 C 3.4641 -1.5 0.0 0
M  V30 6 C 2.7209 -2.1691 0.0 0
M  V30 7 C 5.1961 -0.4999 0.0 0
M  V30 8 C 6.0621 -1.9999 0.0 0
M  V30 9 C 3.4641 -0.5 0.0 0
M  V30 10 C 4.3301 0.0 0.0 0
M  V30 11 C 6.9282 -1.5 0.0 0 CFG=2
M  V30 12 O 2.598 0.0 0.0 0
M  V30 13 O 6.9282 -0.5 0.0 0
M  V30 14 C 7.7942 -2.0 0.0 0
M  V30 15 C 1.732 -0.5 0.0 0
M  V30 16 C 6.0621 0.0 0.0 0
M  V30 17 O 7.7942 -3.0 0.0 0
M  V30 18 O 8.6602 -1.5 0.0 0
M  V30 19 C 0.866 0.0 0.0 0
M  V30 20 C 0.0 -0.5 0.0 0
M  V30 21 N -0.9135 -0.0932 0.0 0
M  V30 22 C -0.1045 -1.4945 0.0 0
M  V30 23 C -1.5826 -0.8364 0.0 0
M  V30 24 O -1.0826 -1.7024 0.0 0
M  V30 25 C 0.6386 -2.1636 0.0 0
M  V30 26 C -2.5771 -0.7318 0.0 0
M  V30 27 C -2.9839 0.1816 0.0 0
M  V30 28 C -3.1649 -1.5408 0.0 0
M  V30 29 C -3.9784 0.2861 0.0 0
M  V30 30 C -4.1595 -1.4363 0.0 0
M  V30 31 C -4.5662 -0.5228 0.0 0
M  V30 32 C -5.5607 -0.4182 0.0 0
M  V30 33 C -5.9675 0.4952 0.0 0
M  V30 34 C -6.1485 -1.2273 0.0 0
M  V30 END ATOM
M  V30 BEGIN BOND
M  V30 1 1 1 2
M  V30 2 1 1 3
M  V30 3 2 2 4
M  V30 4 1 2 5
M  V30 5 2 3 6
M  V30 6 1 4 7
M  V30 7 1 4 8
M  V30 8 2 5 9
M  V30 9 2 7 10
M  V30 10 1 8 11
M  V30 11 1 9 12
M  V30 12 1 11 13 CFG=3
M  V30 13 1 11 14
M  V30 14 1 12 15
M  V30 15 1 13 16
M  V30 16 2 14 17
M  V30 17 1 14 18
M  V30 18 1 15 19
M  V30 19 1 19 20
M  V30 20 1 20 21
M  V30 21 2 20 22
M  V30 22 2 21 23
M  V30 23 1 22 24
M  V30 24 1 22 25
M  V30 25 1 23 26
M  V30 26 2 26 27
M  V30 27 1 26 28
M  V30 28 1 27 29
M  V30 29 2 28 30
M  V30 30 2 29 31
M  V30 31 1 31 32
M  V30 32 1 32 33
M  V30 33 1 32 34
M  V30 34 1 5 6
M  V30 35 1 9 10
M  V30 36 1 23 24
M  V30 37 1 30 31
M  V30 END BOND
M  V30 BEGIN COLLECTION
M  V30 MDLV30/STEABS ATOMS=(1 11)
M  V30 END COLLECTION
M  V30 END CTAB
M  END
>  <Molecule ChEMBL ID>
CHEMBL484409

>  <Smiles>
CO[C@@H](Cc1ccc(OCCc2nc(-c3ccc(C(C)C)cc3)oc2C)c2ccsc12)C(=O)O

>  <IC50_nM>
2

>  <Assay Description>
Displacement of radio labeled 2(S)-(2-benzoyl-phenylamino)-3-{4-[1,1-ditritio-2-(5-methyl-2-phenyl-oxazol-4-yl)-ethoxy]-phenyl}-propionic acid from GST-fused human PPARgamma expressed in Escherichia coli BL21 cells by scintillation proximity assay

$$$$
CHEMBL3695884
Actelion Java MolfileCreator 2.0

  0  0  0  0  0  0              0 V3000
M  V30 BEGIN CTAB
M  V30 COUNTS 37 41 0 0 0
M  V30 BEGIN ATOM
M  V30 1 O 1.732 -0.5 0.0 0
M  V30 2 C 2.598 0.0 0.0 0
M  V30 3 N 3.4641 -0.4999 0.0 0
M  V30 4 C 2.598 1.0 0.0 0
M  V30 5 C 4.3301 0.0 0.0 0 CFG=1
M  V30 6 C 1.732 1.4999 0.0 0
M  V30 7 C 3.4641 1.5 0.0 0
M  V30 8 C 5.1961 -0.4999 0.0 0
M  V30 9 C 4.3301 1.0 0.0 0
M  V30 10 C 1.732 2.4999 0.0 0
M  V30 11 C 3.4641 2.5 0.0 0
M  V30 12 C 6.0621 0.0 0.0 0
M  V30 13 C 5.1961 -1.4999 0.0 0
M  V30 14 C 2.598 3.0 0.0 0
M  V30 15 C 0.9889 3.1691 0.0 0
M  V30 16 C 6.9282 -0.4999 0.0 0
M  V30 17 C 6.0621 -1.9999 0.0 0
M  V30 18 N 2.3901 3.9781 0.0 0
M  V30 19 C 1.3956 4.0826 0.0 0
M  V30 20 C 0.0107 2.9612 0.0 0
M  V30 21 O 7.7942 0.0 0.0 0
M  V30 22 C 6.9282 -1.4999 0.0 0
M  V30 23 C 3.0592 4.7212 0.0 0
M  V30 24 C 0.8956 4.9487 0.0 0
M  V30 25 C 8.6602 -0.4999 0.0 0
M  V30 26 C 2.7502 5.6723 0.0 0
M  V30 27 C 3.4194 6.4154 0.0 0
M  V30 28 C 1.7721 5.8802 0.0 0
M  V30 29 C 3.1103 7.3665 0.0 0
M  V30 30 C 1.4631 6.8313 0.0 0
M  V30 31 C 2.1322 7.5744 0.0 0
M  V30 32 C 1.8232 8.5255 0.0 0
M  V30 33 C 2.4923 9.2686 0.0 0
M  V30 34 C 0.845 8.7334 0.0 0
M  V30 35 C 2.1833 10.2197 0.0 0
M  V30 36 C 0.536 9.6844 0.0 0
M  V30 37 C 1.2051 10.4276 0.0 0
M  V30 END ATOM
M  V30 BEGIN BOND
M  V30 1 2 1 2
M  V30 2 1 2 3
M  V30 3 1 2 4
M  V30 4 1 3 5
M  V30 5 2 4 6
M  V30 6 1 4 7
M  V30 7 1 5 8
M  V30 8 1 5 9 CFG=3
M  V30 9 1 6 10
M  V30 10 2 7 11
M  V30 11 2 8 12
M  V30 12 1 8 13
M  V30 13 2 10 14
M  V30 14 1 10 15
M  V30 15 1 12 16
M  V30 16 2 13 17
M  V30 17 1 14 18
M  V30 18 2 15 19
M  V30 19 1 15 20
M  V30 20 1 16 21
M  V30 21 2 16 22
M  V30 22 1 18 23
M  V30 23 1 19 24
M  V30 24 1 21 25
M  V30 25 1 23 26
M  V30 26 2 26 27
M  V30 27 1 26 28
M  V30 28 1 27 29
M  V30 29 2 28 30
M  V30 30 2 29 31
M  V30 31 1 31 32
M  V30 32 2 32 33
M  V30 33 1 32 34
M  V30 34 1 33 35
M  V30 35 2 34 36
M  V30 36 2 35 37
M  V30 37 1 11 14
M  V30 38 1 17 22
M  V30 39 1 18 19
M  V30 40 1 30 31
M  V30 41 1 36 37
M  V30 END BOND
M  V30 BEGIN COLLECTION
M  V30 MDLV30/STEABS ATOMS=(1 5)
M  V30 END COLLECTION
M  V30 END CTAB
M  END
>  <Molecule ChEMBL ID>
CHEMBL3695884

>  <Smiles>
COc1cccc([C@@H](C)NC(=O)c2ccc3c(c2)c(C)c(C)n3Cc2ccc(-c3ccccc3)cc2)c1

>  <IC50_nM>
2

>  <Assay Description>
Lanthascreen Competitive Binding Assay: The assay was performed according to manufacturer protocol. A mixture of nM GST-PPARG-LBD, 5 nM Tb-GST-antibody, 5 nM Fluormone Pan-PPAR Green, and serial dilutions of the experimental compound, beginning at 10 ׬M downwards, was added to wells of black 384-well low-volume plates (Greiner) to a total volume of 18 ׬L. All dilutions were made in TR-FRET assay buffer C. DMSO at 2% final concentration was used as a no-ligand control. Experiment was performed in triplicate, and incubated for 2 hours in the dark prior to assay read in Perkin Elmer ViewLux ultra HTS microplate reader. FRET signal was measured by excitation at 340 nm and emission at 520 nm for fluorescein and 490 nm for terbium. Fold change over DMSO was calculated using GraphPad Prism Software (La Jolla, Calif.) by calculating 520 nm/490 nm ratio. Graphs were plotted as fold change of FRET signal for compound treatment over DMSO-only control.

$$$$
CHEMBL559567
Actelion Java MolfileCreator 2.0

  0  0  0  0  0  0              0 V3000
M  V30 BEGIN CTAB
M  V30 COUNTS 36 39 0 0 0
M  V30 BEGIN ATOM
M  V30 1 Cl 6.0664 -5.852 0.0 0
M  V30 2 C 6.6542 -5.043 0.0 0
M  V30 3 C 7.6487 -5.1475 0.0 0
M  V30 4 C 6.2475 -4.1294 0.0 0
M  V30 5 C 8.2365 -4.3385 0.0 0
M  V30 6 C 6.8353 -3.3204 0.0 0
M  V30 7 C 7.8298 -3.4249 0.0 0
M  V30 8 C 8.4176 -2.6159 0.0 0
M  V30 9 O 9.4121 -2.7205 0.0 0
M  V30 10 C 8.0108 -1.7024 0.0 0
M  V30 11 C 8.5108 -0.8364 0.0 0
M  V30 12 C 7.0327 -1.4945 0.0 0
M  V30 13 C 7.8417 -0.0932 0.0 0
M  V30 14 C 9.489 -0.6284 0.0 0
M  V30 15 N 6.9282 -0.5 0.0 0
M  V30 16 C 6.2895 -2.1636 0.0 0
M  V30 17 C 8.1507 0.8577 0.0 0
M  V30 18 C 9.798 0.3225 0.0 0
M  V30 19 C 6.0621 0.0 0.0 0
M  V30 20 C 9.1289 1.0657 0.0 0
M  V30 21 C 5.1961 -0.5 0.0 0
M  V30 22 O 9.4379 2.0167 0.0 0
M  V30 23 C 4.3301 0.0 0.0 0
M  V30 24 C 5.1961 -1.4999 0.0 0
M  V30 25 C 8.7687 2.7599 0.0 0
M  V30 26 C 3.4641 -0.5 0.0 0
M  V30 27 C 4.3301 -1.9999 0.0 0
M  V30 28 F 8.0256 2.0907 0.0 0
M  V30 29 F 8.0996 3.503 0.0 0
M  V30 30 F 9.5119 3.429 0.0 0
M  V30 31 O 2.598 0.0 0.0 0
M  V30 32 C 3.4641 -1.4999 0.0 0
M  V30 33 C 1.732 -0.5 0.0 0
M  V30 34 C 0.866 0.0 0.0 0
M  V30 35 O 0.866 1.0 0.0 0
M  V30 36 O 0.0 -0.5 0.0 0
M  V30 END ATOM
M  V30 BEGIN BOND
M  V30 1 1 1 2
M  V30 2 2 2 3
M  V30 3 1 2 4
M  V30 4 1 3 5
M  V30 5 2 4 6
M  V30 6 2 5 7
M  V30 7 1 7 8
M  V30 8 2 8 9
M  V30 9 1 8 10
M  V30 10 1 10 11
M  V30 11 2 10 12
M  V30 12 2 11 13
M  V30 13 1 11 14
M  V30 14 1 12 15
M  V30 15 1 12 16
M  V30 16 1 13 17
M  V30 17 2 14 18
M  V30 18 1 15 19
M  V30 19 2 17 20
M  V30 20 1 19 21
M  V30 21 1 20 22
M  V30 22 2 21 23
M  V30 23 1 21 24
M  V30 24 1 22 25
M  V30 25 1 23 26
M  V30 26 2 24 27
M  V30 27 1 25 28
M  V30 28 1 25 29
M  V30 29 1 25 30
M  V30 30 1 26 31
M  V30 31 2 26 32
M  V30 32 1 31 33
M  V30 33 1 33 34
M  V30 34 2 34 35
M  V30 35 1 34 36
M  V30 36 1 6 7
M  V30 37 1 13 15
M  V30 38 1 18 20
M  V30 39 1 27 32
M  V30 END BOND
M  V30 END CTAB
M  END
>  <Molecule ChEMBL ID>
CHEMBL559567

>  <Smiles>
Cc1c(C(=O)c2ccc(Cl)cc2)c2ccc(OC(F)(F)F)cc2n1Cc1cccc(OCC(=O)O)c1

>  <IC50_nM>
2

>  <Assay Description>
Inhibition of human PPARgamma receptor by scintillation proximity assay

$$$$
CHEMBL3695849
Actelion Java MolfileCreator 2.0

  0  0  0  0  0  0              0 V3000
M  V30 BEGIN CTAB
M  V30 COUNTS 42 47 0 0 0
M  V30 BEGIN ATOM
M  V30 1 O 11.8592 -3.5669 0.0 0
M  V30 2 C 10.8811 -3.7748 0.0 0
M  V30 3 O 10.212 -3.0316 0.0 0
M  V30 4 C 10.5721 -4.7258 0.0 0
M  V30 5 C 9.5939 -4.9337 0.0 0
M  V30 6 C 11.2412 -5.469 0.0 0
M  V30 7 C 8.9248 -4.1906 0.0 0
M  V30 8 C 9.2849 -5.8848 0.0 0
M  V30 9 C 10.9322 -6.42 0.0 0
M  V30 10 C 9.2338 -3.2395 0.0 0
M  V30 11 C 7.9466 -4.3985 0.0 0
M  V30 12 C 9.954 -6.6279 0.0 0
M  V30 13 C 8.5647 -2.4964 0.0 0
M  V30 14 C 7.2775 -3.6554 0.0 0
M  V30 15 C 7.5865 -2.7043 0.0 0
M  V30 16 C 6.9174 -1.9612 0.0 0
M  V30 17 N 5.9392 -2.1691 0.0 0
M  V30 18 C 5.1961 -1.4999 0.0 0
M  V30 19 C 5.5325 -3.0826 0.0 0
M  V30 20 C 4.3301 -1.9999 0.0 0
M  V30 21 C 5.1961 -0.4999 0.0 0
M  V30 22 C 4.538 -2.9781 0.0 0
M  V30 23 C 6.0325 -3.9487 0.0 0
M  V30 24 C 3.4641 -1.5 0.0 0
M  V30 25 C 4.3301 0.0 0.0 0
M  V30 26 C 3.8689 -3.7212 0.0 0
M  V30 27 C 3.4641 -0.5 0.0 0
M  V30 28 C 2.598 0.0 0.0 0
M  V30 29 O 2.598 1.0 0.0 0
M  V30 30 N 1.732 -0.5 0.0 0
M  V30 31 C 0.866 0.0 0.0 0 CFG=2
M  V30 32 C 0.866 1.0 0.0 0
M  V30 33 C 0.0 -0.5 0.0 0
M  V30 34 C 0.0 1.4999 0.0 0
M  V30 35 C 1.732 1.5 0.0 0
M  V30 36 C 0.0 2.4999 0.0 0
M  V30 37 C -0.866 0.9999 0.0 0
M  V30 38 C 1.732 2.5 0.0 0
M  V30 39 C 0.866 3.0 0.0 0
M  V30 40 C -0.866 2.9999 0.0 0
M  V30 41 C -1.732 1.4999 0.0 0
M  V30 42 C -1.732 2.4999 0.0 0
M  V30 END ATOM
M  V30 BEGIN BOND
M  V30 1 2 1 2
M  V30 2 1 2 3
M  V30 3 1 2 4
M  V30 4 2 4 5
M  V30 5 1 4 6
M  V30 6 1 5 7
M  V30 7 1 5 8
M  V30 8 2 6 9
M  V30 9 2 7 10
M  V30 10 1 7 11
M  V30 11 2 8 12
M  V30 12 1 10 13
M  V30 13 2 11 14
M  V30 14 2 13 15
M  V30 15 1 15 16
M  V30 16 1 16 17
M  V30 17 1 17 18
M  V30 18 1 17 19
M  V30 19 2 18 20
M  V30 20 1 18 21
M  V30 21 2 19 22
M  V30 22 1 19 23
M  V30 23 1 20 24
M  V30 24 2 21 25
M  V30 25 1 22 26
M  V30 26 2 24 27
M  V30 27 1 27 28
M  V30 28 2 28 29
M  V30 29 1 28 30
M  V30 30 1 30 31
M  V30 31 1 31 32
M  V30 32 1 31 33 CFG=1
M  V30 33 1 32 34
M  V30 34 2 32 35
M  V30 35 1 34 36
M  V30 36 2 34 37
M  V30 37 1 35 38
M  V30 38 1 36 39
M  V30 39 2 36 40
M  V30 40 1 37 41
M  V30 41 1 40 42
M  V30 42 1 9 12
M  V30 43 1 14 15
M  V30 44 1 20 22
M  V30 45 1 25 27
M  V30 46 2 38 39
M  V30 47 2 41 42
M  V30 END BOND
M  V30 BEGIN COLLECTION
M  V30 MDLV30/STERAC1 ATOMS=(1 31)
M  V30 END COLLECTION
M  V30 END CTAB
M  END
>  <Molecule ChEMBL ID>
CHEMBL3695849

>  <Smiles>
Cc1c(C)n(Cc2ccc(-c3ccccc3C(=O)O)cc2)c2ccc(C(=O)NC(C)c3cccc4ccccc34)cc12

>  <IC50_nM>
2

>  <Assay Description>
Lanthascreen Competitive Binding Assay: The assay was performed according to manufacturer protocol. A mixture of nM GST-PPARG-LBD, 5 nM Tb-GST-antibody, 5 nM Fluormone Pan-PPAR Green, and serial dilutions of the experimental compound, beginning at 10 ׬M downwards, was added to wells of black 384-well low-volume plates (Greiner) to a total volume of 18 ׬L. All dilutions were made in TR-FRET assay buffer C. DMSO at 2% final concentration was used as a no-ligand control. Experiment was performed in triplicate, and incubated for 2 hours in the dark prior to assay read in Perkin Elmer ViewLux ultra HTS microplate reader. FRET signal was measured by excitation at 340 nm and emission at 520 nm for fluorescein and 490 nm for terbium. Fold change over DMSO was calculated using GraphPad Prism Software (La Jolla, Calif.) by calculating 520 nm/490 nm ratio. Graphs were plotted as fold change of FRET signal for compound treatment over DMSO-only control.

$$$$
CHEMBL3699404
Actelion Java MolfileCreator 2.0

  0  0  0  0  0  0              0 V3000
M  V30 BEGIN CTAB
M  V30 COUNTS 39 43 0 0 0
M  V30 BEGIN ATOM
M  V30 1 Br 6.0621 -1.9999 0.0 0
M  V30 2 C 5.1961 -1.4999 0.0 0
M  V30 3 C 5.1961 -0.5 0.0 0
M  V30 4 C 4.3301 -1.9999 0.0 0
M  V30 5 N 4.3301 0.0 0.0 0
M  V30 6 C 3.4641 -1.5 0.0 0
M  V30 7 C 3.4641 -0.5 0.0 0
M  V30 8 C 2.598 0.0 0.0 0 CFG=1
M  V30 9 N 1.732 -0.5 0.0 0
M  V30 10 C 2.598 1.0 0.0 0
M  V30 11 C 0.866 0.0 0.0 0
M  V30 12 O 0.866 1.0 0.0 0
M  V30 13 C 0.0 -0.5 0.0 0
M  V30 14 C 0.0 -1.4999 0.0 0
M  V30 15 C -0.866 0.0 0.0 0
M  V30 16 C -0.866 -1.9999 0.0 0
M  V30 17 C -1.732 -0.4999 0.0 0
M  V30 18 C -1.732 -1.4999 0.0 0
M  V30 19 C -1.0739 -2.9781 0.0 0
M  V30 20 N -2.4751 -2.1691 0.0 0
M  V30 21 C -2.0684 -3.0826 0.0 0
M  V30 22 C -0.4048 -3.7212 0.0 0
M  V30 23 C -3.4533 -1.9612 0.0 0
M  V30 24 C -2.5684 -3.9487 0.0 0
M  V30 25 C -4.1224 -2.7043 0.0 0
M  V30 26 C -5.1006 -2.4964 0.0 0
M  V30 27 C -3.8134 -3.6554 0.0 0
M  V30 28 C -5.7697 -3.2395 0.0 0
M  V30 29 C -4.4825 -4.3985 0.0 0
M  V30 30 C -5.4607 -4.1906 0.0 0
M  V30 31 C -6.1298 -4.9337 0.0 0
M  V30 32 C -7.108 -4.7258 0.0 0
M  V30 33 C -5.8208 -5.8848 0.0 0
M  V30 34 C -7.417 -3.7748 0.0 0
M  V30 35 C -7.7771 -5.469 0.0 0
M  V30 36 C -6.4899 -6.6279 0.0 0
M  V30 37 O -6.7478 -3.0316 0.0 0
M  V30 38 O -8.3951 -3.5669 0.0 0
M  V30 39 C -7.4681 -6.42 0.0 0
M  V30 END ATOM
M  V30 BEGIN BOND
M  V30 1 1 1 2
M  V30 2 2 2 3
M  V30 3 1 2 4
M  V30 4 1 3 5
M  V30 5 2 4 6
M  V30 6 2 5 7
M  V30 7 1 7 8
M  V30 8 1 8 9
M  V30 9 1 8 10 CFG=1
M  V30 10 1 9 11
M  V30 11 2 11 12
M  V30 12 1 11 13
M  V30 13 2 13 14
M  V30 14 1 13 15
M  V30 15 1 14 16
M  V30 16 2 15 17
M  V30 17 2 16 18
M  V30 18 1 16 19
M  V30 19 1 18 20
M  V30 20 2 19 21
M  V30 21 1 19 22
M  V30 22 1 20 23
M  V30 23 1 21 24
M  V30 24 1 23 25
M  V30 25 2 25 26
M  V30 26 1 25 27
M  V30 27 1 26 28
M  V30 28 2 27 29
M  V30 29 2 28 30
M  V30 30 1 30 31
M  V30 31 2 31 32
M  V30 32 1 31 33
M  V30 33 1 32 34
M  V30 34 1 32 35
M  V30 35 2 33 36
M  V30 36 2 34 37
M  V30 37 1 34 38
M  V30 38 2 35 39
M  V30 39 1 6 7
M  V30 40 1 17 18
M  V30 41 1 20 21
M  V30 42 1 29 30
M  V30 43 1 36 39
M  V30 END BOND
M  V30 BEGIN COLLECTION
M  V30 MDLV30/STEABS ATOMS=(1 8)
M  V30 END COLLECTION
M  V30 END CTAB
M  END
>  <Molecule ChEMBL ID>
CHEMBL3699404

>  <Smiles>
Cc1c(C)n(Cc2ccc(-c3ccccc3C(=O)O)cc2)c2ccc(C(=O)N[C@@H](C)c3ccc(Br)cn3)cc12

>  <IC50_nM>
2

>  <Assay Description>
Lanthascreen Competitive Binding Assay: The assay was performed according to manufacturer protocol. A mixture of nM GST-PPARG-LBD, 5 nM Tb-GST-antibody, 5 nM Fluormone Pan-PPAR Green, and serial dilutions of the experimental compound, beginning at 10 ׬M downwards, was added to wells of black 384-well low-volume plates (Greiner) to a total volume of 18 ׬L. All dilutions were made in TR-FRET assay buffer C. DMSO at 2% final concentration was used as a no-ligand control. Experiment was performed in triplicate, and incubated for 2 hours in the dark prior to assay read in Perkin Elmer ViewLux ultra HTS microplate reader. FRET signal was measured by excitation at 340 nm and emission at 520 nm for fluorescein and 490 nm for terbium. Fold change over DMSO was calculated using GraphPad Prism Software (La Jolla, Calif.) by calculating 520 nm/490 nm ratio. Graphs were plotted as fold change of FRET signal for compound treatment over DMSO-only control.

$$$$
CHEMBL3695811
Actelion Java MolfileCreator 2.0

  0  0  0  0  0  0              0 V3000
M  V30 BEGIN CTAB
M  V30 COUNTS 41 45 0 0 0
M  V30 BEGIN ATOM
M  V30 1 O 6.0621 -3.0 0.0 0
M  V30 2 N 6.0621 -1.9999 0.0 0 CHG=1
M  V30 3 O 6.9282 -1.5 0.0 0 CHG=-1
M  V30 4 C 5.1961 -1.4999 0.0 0
M  V30 5 C 5.1961 -0.5 0.0 0
M  V30 6 C 4.3301 -1.9999 0.0 0
M  V30 7 C 4.3301 0.0 0.0 0
M  V30 8 C 3.4641 -1.5 0.0 0
M  V30 9 C 3.4641 -0.5 0.0 0
M  V30 10 C 2.598 0.0 0.0 0 CFG=2
M  V30 11 N 1.732 -0.5 0.0 0
M  V30 12 C 2.598 1.0 0.0 0
M  V30 13 C 0.866 0.0 0.0 0
M  V30 14 O 0.866 1.0 0.0 0
M  V30 15 C 0.0 -0.5 0.0 0
M  V30 16 C 0.0 -1.4999 0.0 0
M  V30 17 C -0.866 0.0 0.0 0
M  V30 18 C -0.866 -1.9999 0.0 0
M  V30 19 C -1.732 -0.4999 0.0 0
M  V30 20 C -1.732 -1.4999 0.0 0
M  V30 21 C -1.0739 -2.9781 0.0 0
M  V30 22 N -2.4751 -2.1691 0.0 0
M  V30 23 C -2.0684 -3.0826 0.0 0
M  V30 24 C -0.4048 -3.7212 0.0 0
M  V30 25 C -3.4533 -1.9612 0.0 0
M  V30 26 C -2.5684 -3.9487 0.0 0
M  V30 27 C -4.1224 -2.7043 0.0 0
M  V30 28 C -5.1006 -2.4964 0.0 0
M  V30 29 C -3.8134 -3.6554 0.0 0
M  V30 30 C -5.7697 -3.2395 0.0 0
M  V30 31 C -4.4825 -4.3985 0.0 0
M  V30 32 C -5.4607 -4.1906 0.0 0
M  V30 33 C -6.1298 -4.9337 0.0 0
M  V30 34 C -7.108 -4.7258 0.0 0
M  V30 35 C -5.8208 -5.8848 0.0 0
M  V30 36 C -7.417 -3.7748 0.0 0
M  V30 37 C -7.7771 -5.469 0.0 0
M  V30 38 C -6.4899 -6.6279 0.0 0
M  V30 39 O -6.7478 -3.0316 0.0 0
M  V30 40 O -8.3951 -3.5669 0.0 0
M  V30 41 C -7.4681 -6.42 0.0 0
M  V30 END ATOM
M  V30 BEGIN BOND
M  V30 1 2 1 2
M  V30 2 1 2 3
M  V30 3 1 2 4
M  V30 4 2 4 5
M  V30 5 1 4 6
M  V30 6 1 5 7
M  V30 7 2 6 8
M  V30 8 2 7 9
M  V30 9 1 9 10
M  V30 10 1 10 11
M  V30 11 1 10 12 CFG=3
M  V30 12 1 11 13
M  V30 13 2 13 14
M  V30 14 1 13 15
M  V30 15 2 15 16
M  V30 16 1 15 17
M  V30 17 1 16 18
M  V30 18 2 17 19
M  V30 19 2 18 20
M  V30 20 1 18 21
M  V30 21 1 20 22
M  V30 22 2 21 23
M  V30 23 1 21 24
M  V30 24 1 22 25
M  V30 25 1 23 26
M  V30 26 1 25 27
M  V30 27 2 27 28
M  V30 28 1 27 29
M  V30 29 1 28 30
M  V30 30 2 29 31
M  V30 31 2 30 32
M  V30 32 1 32 33
M  V30 33 2 33 34
M  V30 34 1 33 35
M  V30 35 1 34 36
M  V30 36 1 34 37
M  V30 37 2 35 38
M  V30 38 2 36 39
M  V30 39 1 36 40
M  V30 40 2 37 41
M  V30 41 1 8 9
M  V30 42 1 19 20
M  V30 43 1 22 23
M  V30 44 1 31 32
M  V30 45 1 38 41
M  V30 END BOND
M  V30 BEGIN COLLECTION
M  V30 MDLV30/STEABS ATOMS=(1 10)
M  V30 END COLLECTION
M  V30 END CTAB
M  END
>  <Molecule ChEMBL ID>
CHEMBL3695811

>  <Smiles>
Cc1c(C)n(Cc2ccc(-c3ccccc3C(=O)O)cc2)c2ccc(C(=O)N[C@H](C)c3ccc([N+](=O)[O-])cc3)cc12

>  <IC50_nM>
2

>  <Assay Description>
Binding affinity to GST-tagged PPAR-gamma-LBD (unknown origin) after 2 hrs by Lantha screen assay using fluormone Pan-PPAR green probe

$$$$
CHEMBL3695888
Actelion Java MolfileCreator 2.0

  0  0  0  0  0  0              0 V3000
M  V30 BEGIN CTAB
M  V30 COUNTS 39 43 0 0 0
M  V30 BEGIN ATOM
M  V30 1 Cl 6.0621 -1.9999 0.0 0
M  V30 2 C 5.1961 -1.4999 0.0 0
M  V30 3 C 5.1961 -0.5 0.0 0
M  V30 4 C 4.3301 -1.9999 0.0 0
M  V30 5 C 4.3301 0.0 0.0 0
M  V30 6 C 3.4641 -1.5 0.0 0
M  V30 7 C 3.4641 -0.5 0.0 0
M  V30 8 C 4.3301 1.0 0.0 0
M  V30 9 C 2.598 0.0 0.0 0
M  V30 10 F 3.3301 1.0 0.0 0
M  V30 11 F 4.3301 2.0 0.0 0
M  V30 12 F 5.3301 1.0 0.0 0
M  V30 13 N 1.732 -0.5 0.0 0
M  V30 14 C 0.866 0.0 0.0 0
M  V30 15 O 0.866 1.0 0.0 0
M  V30 16 C 0.0 -0.5 0.0 0
M  V30 17 C 0.0 -1.4999 0.0 0
M  V30 18 C -0.866 0.0 0.0 0
M  V30 19 C -0.866 -1.9999 0.0 0
M  V30 20 C -1.732 -0.4999 0.0 0
M  V30 21 C -1.732 -1.4999 0.0 0
M  V30 22 C -1.0739 -2.9781 0.0 0
M  V30 23 N -2.4751 -2.1691 0.0 0
M  V30 24 C -2.0684 -3.0826 0.0 0
M  V30 25 C -0.4048 -3.7212 0.0 0
M  V30 26 C -3.4533 -1.9612 0.0 0
M  V30 27 C -2.5684 -3.9487 0.0 0
M  V30 28 C -4.1224 -2.7043 0.0 0
M  V30 29 C -5.1006 -2.4964 0.0 0
M  V30 30 C -3.8134 -3.6554 0.0 0
M  V30 31 C -5.7697 -3.2395 0.0 0
M  V30 32 C -4.4825 -4.3985 0.0 0
M  V30 33 C -5.4607 -4.1906 0.0 0
M  V30 34 C -6.1298 -4.9337 0.0 0
M  V30 35 C -7.108 -4.7258 0.0 0
M  V30 36 C -5.8208 -5.8848 0.0 0
M  V30 37 C -7.7771 -5.469 0.0 0
M  V30 38 C -6.4899 -6.6279 0.0 0
M  V30 39 C -7.4681 -6.42 0.0 0
M  V30 END ATOM
M  V30 BEGIN BOND
M  V30 1 1 1 2
M  V30 2 2 2 3
M  V30 3 1 2 4
M  V30 4 1 3 5
M  V30 5 2 4 6
M  V30 6 2 5 7
M  V30 7 1 5 8
M  V30 8 1 7 9
M  V30 9 1 8 10
M  V30 10 1 8 11
M  V30 11 1 8 12
M  V30 12 1 9 13
M  V30 13 1 13 14
M  V30 14 2 14 15
M  V30 15 1 14 16
M  V30 16 2 16 17
M  V30 17 1 16 18
M  V30 18 1 17 19
M  V30 19 2 18 20
M  V30 20 2 19 21
M  V30 21 1 19 22
M  V30 22 1 21 23
M  V30 23 2 22 24
M  V30 24 1 22 25
M  V30 25 1 23 26
M  V30 26 1 24 27
M  V30 27 1 26 28
M  V30 28 2 28 29
M  V30 29 1 28 30
M  V30 30 1 29 31
M  V30 31 2 30 32
M  V30 32 2 31 33
M  V30 33 1 33 34
M  V30 34 2 34 35
M  V30 35 1 34 36
M  V30 36 1 35 37
M  V30 37 2 36 38
M  V30 38 2 37 39
M  V30 39 1 6 7
M  V30 40 1 20 21
M  V30 41 1 23 24
M  V30 42 1 32 33
M  V30 43 1 38 39
M  V30 END BOND
M  V30 END CTAB
M  END
>  <Molecule ChEMBL ID>
CHEMBL3695888

>  <Smiles>
Cc1c(C)n(Cc2ccc(-c3ccccc3)cc2)c2ccc(C(=O)NCc3ccc(Cl)cc3C(F)(F)F)cc12

>  <IC50_nM>
2

>  <Assay Description>
Lanthascreen Competitive Binding Assay: The assay was performed according to manufacturer protocol. A mixture of nM GST-PPARG-LBD, 5 nM Tb-GST-antibody, 5 nM Fluormone Pan-PPAR Green, and serial dilutions of the experimental compound, beginning at 10 ׬M downwards, was added to wells of black 384-well low-volume plates (Greiner) to a total volume of 18 ׬L. All dilutions were made in TR-FRET assay buffer C. DMSO at 2% final concentration was used as a no-ligand control. Experiment was performed in triplicate, and incubated for 2 hours in the dark prior to assay read in Perkin Elmer ViewLux ultra HTS microplate reader. FRET signal was measured by excitation at 340 nm and emission at 520 nm for fluorescein and 490 nm for terbium. Fold change over DMSO was calculated using GraphPad Prism Software (La Jolla, Calif.) by calculating 520 nm/490 nm ratio. Graphs were plotted as fold change of FRET signal for compound treatment over DMSO-only control.

$$$$
CHEMBL484001
Actelion Java MolfileCreator 2.0

  0  0  0  0  0  0              0 V3000
M  V30 BEGIN CTAB
M  V30 COUNTS 34 38 0 0 0
M  V30 BEGIN ATOM
M  V30 1 S 5.3804 2.5036 0.0 0
M  V30 2 C 6.4951 1.5 0.0 0
M  V30 3 C 5.9905 3.874 0.0 0
M  V30 4 C 6.4951 0.0 0.0 0
M  V30 5 C 7.7942 2.25 0.0 0
M  V30 6 C 7.4823 3.7172 0.0 0
M  V30 7 C 7.7942 -0.7499 0.0 0
M  V30 8 C 5.1961 -0.75 0.0 0
M  V30 9 C 9.0932 1.4999 0.0 0
M  V30 10 C 9.0932 0.0 0.0 0
M  V30 11 C 5.1961 -2.25 0.0 0 CFG=2
M  V30 12 O 10.3923 2.2499 0.0 0
M  V30 13 O 3.8971 -3.0 0.0 0
M  V30 14 C 6.4951 -3.0 0.0 0
M  V30 15 C 10.3923 3.75 0.0 0
M  V30 16 C 3.8971 -4.5 0.0 0
M  V30 17 O 7.7942 -2.25 0.0 0
M  V30 18 O 6.4951 -4.5 0.0 0
M  V30 19 C 11.6913 4.5 0.0 0
M  V30 20 C 2.598 -5.25 0.0 0
M  V30 21 C 11.6913 6.0 0.0 0
M  V30 22 C 1.848 -6.549 0.0 0
M  V30 23 C 1.098 -5.25 0.0 0
M  V30 24 N 12.9048 6.8816 0.0 0
M  V30 25 C 10.4778 6.8816 0.0 0
M  V30 26 C 12.4413 8.3082 0.0 0
M  V30 27 O 10.9413 8.3082 0.0 0
M  V30 28 C 9.0512 6.4181 0.0 0
M  V30 29 C 13.323 9.5217 0.0 0
M  V30 30 C 14.8148 9.3649 0.0 0
M  V30 31 C 12.7129 10.8921 0.0 0
M  V30 32 C 15.6964 10.5785 0.0 0
M  V30 33 C 13.5945 12.1056 0.0 0
M  V30 34 C 15.0863 11.9488 0.0 0
M  V30 END ATOM
M  V30 BEGIN BOND
M  V30 1 1 1 2
M  V30 2 1 1 3
M  V30 3 2 2 4
M  V30 4 1 2 5
M  V30 5 2 3 6
M  V30 6 1 4 7
M  V30 7 1 4 8
M  V30 8 2 5 9
M  V30 9 2 7 10
M  V30 10 1 8 11
M  V30 11 1 9 12
M  V30 12 1 11 13 CFG=1
M  V30 13 1 11 14
M  V30 14 1 12 15
M  V30 15 1 13 16
M  V30 16 2 14 17
M  V30 17 1 14 18
M  V30 18 1 15 19
M  V30 19 1 16 20
M  V30 20 1 19 21
M  V30 21 1 20 22
M  V30 22 1 20 23
M  V30 23 1 21 24
M  V30 24 2 21 25
M  V30 25 2 24 26
M  V30 26 1 25 27
M  V30 27 1 25 28
M  V30 28 1 26 29
M  V30 29 2 29 30
M  V30 30 1 29 31
M  V30 31 1 30 32
M  V30 32 2 31 33
M  V30 33 2 32 34
M  V30 34 1 5 6
M  V30 35 1 9 10
M  V30 36 1 22 23
M  V30 37 1 26 27
M  V30 38 1 33 34
M  V30 END BOND
M  V30 BEGIN COLLECTION
M  V30 MDLV30/STEABS ATOMS=(1 11)
M  V30 END COLLECTION
M  V30 END CTAB
M  END
>  <Molecule ChEMBL ID>
CHEMBL484001

>  <Smiles>
Cc1oc(-c2ccccc2)nc1CCOc1ccc(C[C@H](OCC2CC2)C(=O)O)c2sccc12

>  <IC50_nM>
2

>  <Assay Description>
Displacement of radio labeled 2(S)-(2-benzoyl-phenylamino)-3-{4-[1,1-ditritio-2-(5-methyl-2-phenyl-oxazol-4-yl)-ethoxy]-phenyl}-propionic acid from GST-fused human PPARgamma expressed in Escherichia coli BL21 cells by scintillation proximity assay

$$$$
CHEMBL602263
Actelion Java MolfileCreator 2.0

  0  0  0  0  0  0              0 V3000
M  V30 BEGIN CTAB
M  V30 COUNTS 38 42 0 0 0
M  V30 BEGIN ATOM
M  V30 1 O 11.1837 5.7369 0.0 0
M  V30 2 C 10.8747 4.7859 0.0 0
M  V30 3 O 9.8965 4.578 0.0 0
M  V30 4 C 11.5438 4.0427 0.0 0
M  V30 5 C 11.2348 3.0917 0.0 0
M  V30 6 C 12.522 4.2506 0.0 0
M  V30 7 C 10.2566 2.8838 0.0 0
M  V30 8 C 11.9039 2.3485 0.0 0
M  V30 9 C 13.1911 3.5075 0.0 0
M  V30 10 C 9.5875 3.6269 0.0 0
M  V30 11 C 9.9476 1.9327 0.0 0
M  V30 12 C 12.8821 2.5564 0.0 0
M  V30 13 C 8.6094 3.419 0.0 0
M  V30 14 C 8.9695 1.7248 0.0 0
M  V30 15 C 8.3003 2.4679 0.0 0
M  V30 16 C 7.3222 2.26 0.0 0
M  V30 17 N 7.0132 1.309 0.0 0
M  V30 18 C 6.0621 0.9999 0.0 0
M  V30 19 C 7.601 0.5 0.0 0
M  V30 20 C 6.0621 0.0 0.0 0
M  V30 21 C 5.1961 1.4999 0.0 0
M  V30 22 C 7.0132 -0.309 0.0 0
M  V30 23 C 8.601 0.5 0.0 0
M  V30 24 C 5.1961 -0.5 0.0 0
M  V30 25 C 4.3301 0.9999 0.0 0
M  V30 26 C 4.3301 0.0 0.0 0
M  V30 27 C 3.4641 -0.5 0.0 0
M  V30 28 O 3.4641 -1.5 0.0 0
M  V30 29 N 2.598 0.0 0.0 0
M  V30 30 C 1.732 -0.5 0.0 0 CFG=2
M  V30 31 C 1.732 -1.5 0.0 0
M  V30 32 C 0.866 0.0 0.0 0
M  V30 33 C 0.866 -1.9999 0.0 0
M  V30 34 C 2.598 -2.0 0.0 0
M  V30 35 C 0.0 -0.5 0.0 0
M  V30 36 C 0.866 -2.9999 0.0 0
M  V30 37 C 2.598 -3.0 0.0 0
M  V30 38 C 1.732 -3.5 0.0 0
M  V30 END ATOM
M  V30 BEGIN BOND
M  V30 1 2 1 2
M  V30 2 1 2 3
M  V30 3 1 2 4
M  V30 4 2 4 5
M  V30 5 1 4 6
M  V30 6 1 5 7
M  V30 7 1 5 8
M  V30 8 2 6 9
M  V30 9 2 7 10
M  V30 10 1 7 11
M  V30 11 2 8 12
M  V30 12 1 10 13
M  V30 13 2 11 14
M  V30 14 2 13 15
M  V30 15 1 15 16
M  V30 16 1 16 17
M  V30 17 1 17 18
M  V30 18 1 17 19
M  V30 19 2 18 20
M  V30 20 1 18 21
M  V30 21 2 19 22
M  V30 22 1 19 23
M  V30 23 1 20 24
M  V30 24 2 21 25
M  V30 25 2 24 26
M  V30 26 1 26 27
M  V30 27 2 27 28
M  V30 28 1 27 29
M  V30 29 1 30 29 CFG=3
M  V30 30 1 30 31
M  V30 31 1 30 32
M  V30 32 2 31 33
M  V30 33 1 31 34
M  V30 34 1 32 35
M  V30 35 1 33 36
M  V30 36 2 34 37
M  V30 37 2 36 38
M  V30 38 1 9 12
M  V30 39 1 14 15
M  V30 40 1 20 22
M  V30 41 1 25 26
M  V30 42 1 37 38
M  V30 END BOND
M  V30 BEGIN COLLECTION
M  V30 MDLV30/STERAC1 ATOMS=(1 30)
M  V30 END COLLECTION
M  V30 END CTAB
M  END
>  <Molecule ChEMBL ID>
CHEMBL602263

>  <Smiles>
CCC(NC(=O)c1ccc2c(c1)cc(C)n2Cc1ccc(-c2ccccc2C(=O)O)cc1)c1ccccc1

>  <IC50_nM>
2

>  <Assay Description>
Lanthascreen Competitive Binding Assay: The assay was performed according to manufacturer protocol. A mixture of nM GST-PPARG-LBD, 5 nM Tb-GST-antibody, 5 nM Fluormone Pan-PPAR Green, and serial dilutions of the experimental compound, beginning at 10 ׬M downwards, was added to wells of black 384-well low-volume plates (Greiner) to a total volume of 18 ׬L. All dilutions were made in TR-FRET assay buffer C. DMSO at 2% final concentration was used as a no-ligand control. Experiment was performed in triplicate, and incubated for 2 hours in the dark prior to assay read in Perkin Elmer ViewLux ultra HTS microplate reader. FRET signal was measured by excitation at 340 nm and emission at 520 nm for fluorescein and 490 nm for terbium. Fold change over DMSO was calculated using GraphPad Prism Software (La Jolla, Calif.) by calculating 520 nm/490 nm ratio. Graphs were plotted as fold change of FRET signal for compound treatment over DMSO-only control.

$$$$
CHEMBL3695807
Actelion Java MolfileCreator 2.0

  0  0  0  0  0  0              0 V3000
M  V30 BEGIN CTAB
M  V30 COUNTS 37 41 0 0 0
M  V30 BEGIN ATOM
M  V30 1 O 11.8017 7.639 0.0 0
M  V30 2 C 10.8236 7.4311 0.0 0
M  V30 3 O 10.1545 8.1743 0.0 0
M  V30 4 C 10.5146 6.4801 0.0 0
M  V30 5 C 9.5364 6.2722 0.0 0
M  V30 6 C 11.1837 5.7369 0.0 0
M  V30 7 C 9.2274 5.3211 0.0 0
M  V30 8 C 10.8747 4.7859 0.0 0
M  V30 9 C 9.8965 4.578 0.0 0
M  V30 10 C 9.5875 3.6269 0.0 0
M  V30 11 C 8.6094 3.419 0.0 0
M  V30 12 C 10.2566 2.8838 0.0 0
M  V30 13 C 8.3003 2.4679 0.0 0
M  V30 14 C 9.9476 1.9327 0.0 0
M  V30 15 C 8.9695 1.7248 0.0 0
M  V30 16 C 7.3222 2.26 0.0 0
M  V30 17 N 7.0132 1.309 0.0 0
M  V30 18 C 6.0621 0.9999 0.0 0
M  V30 19 C 7.601 0.5 0.0 0
M  V30 20 C 6.0621 0.0 0.0 0
M  V30 21 C 5.1961 1.4999 0.0 0
M  V30 22 C 7.0132 -0.309 0.0 0
M  V30 23 C 5.1961 -0.5 0.0 0
M  V30 24 C 4.3301 0.9999 0.0 0
M  V30 25 C 4.3301 0.0 0.0 0
M  V30 26 C 3.4641 -0.5 0.0 0
M  V30 27 O 3.4641 -1.5 0.0 0
M  V30 28 N 2.598 0.0 0.0 0
M  V30 29 C 1.732 -0.5 0.0 0 CFG=2
M  V30 30 C 1.732 -1.5 0.0 0
M  V30 31 C 0.866 0.0 0.0 0
M  V30 32 C 0.866 -1.9999 0.0 0
M  V30 33 C 2.598 -2.0 0.0 0
M  V30 34 C 0.0 -0.5 0.0 0
M  V30 35 C 0.866 -2.9999 0.0 0
M  V30 36 C 2.598 -3.0 0.0 0
M  V30 37 C 1.732 -3.5 0.0 0
M  V30 END ATOM
M  V30 BEGIN BOND
M  V30 1 2 1 2
M  V30 2 1 2 3
M  V30 3 1 2 4
M  V30 4 2 4 5
M  V30 5 1 4 6
M  V30 6 1 5 7
M  V30 7 2 6 8
M  V30 8 2 7 9
M  V30 9 1 9 10
M  V30 10 2 10 11
M  V30 11 1 10 12
M  V30 12 1 11 13
M  V30 13 2 12 14
M  V30 14 2 13 15
M  V30 15 1 13 16
M  V30 16 1 16 17
M  V30 17 1 17 18
M  V30 18 1 17 19
M  V30 19 2 18 20
M  V30 20 1 18 21
M  V30 21 2 19 22
M  V30 22 1 20 23
M  V30 23 2 21 24
M  V30 24 2 23 25
M  V30 25 1 25 26
M  V30 26 2 26 27
M  V30 27 1 26 28
M  V30 28 1 29 28 CFG=3
M  V30 29 1 29 30
M  V30 30 1 29 31
M  V30 31 2 30 32
M  V30 32 1 30 33
M  V30 33 1 31 34
M  V30 34 1 32 35
M  V30 35 2 33 36
M  V30 36 2 35 37
M  V30 37 1 8 9
M  V30 38 1 14 15
M  V30 39 1 20 22
M  V30 40 1 24 25
M  V30 41 1 36 37
M  V30 END BOND
M  V30 BEGIN COLLECTION
M  V30 MDLV30/STERAC1 ATOMS=(1 29)
M  V30 END COLLECTION
M  V30 END CTAB
M  END
>  <Molecule ChEMBL ID>
CHEMBL3695807

>  <Smiles>
CCC(NC(=O)c1ccc2c(ccn2Cc2cccc(-c3ccc(C(=O)O)cc3)c2)c1)c1ccccc1

>  <IC50_nM>
2

>  <Assay Description>
Lanthascreen Competitive Binding Assay: The assay was performed according to manufacturer protocol. A mixture of nM GST-PPARG-LBD, 5 nM Tb-GST-antibody, 5 nM Fluormone Pan-PPAR Green, and serial dilutions of the experimental compound, beginning at 10 ׬M downwards, was added to wells of black 384-well low-volume plates (Greiner) to a total volume of 18 ׬L. All dilutions were made in TR-FRET assay buffer C. DMSO at 2% final concentration was used as a no-ligand control. Experiment was performed in triplicate, and incubated for 2 hours in the dark prior to assay read in Perkin Elmer ViewLux ultra HTS microplate reader. FRET signal was measured by excitation at 340 nm and emission at 520 nm for fluorescein and 490 nm for terbium. Fold change over DMSO was calculated using GraphPad Prism Software (La Jolla, Calif.) by calculating 520 nm/490 nm ratio. Graphs were plotted as fold change of FRET signal for compound treatment over DMSO-only control.

$$$$
CHEMBL3695774
Actelion Java MolfileCreator 2.0

  0  0  0  0  0  0              0 V3000
M  V30 BEGIN CTAB
M  V30 COUNTS 41 45 0 0 0
M  V30 BEGIN ATOM
M  V30 1 O 6.0621 -2.9999 0.0 0
M  V30 2 C 6.0621 -2.0 0.0 0
M  V30 3 O 6.9282 -1.4999 0.0 0
M  V30 4 C 5.1961 -1.4999 0.0 0
M  V30 5 C 6.9282 -0.5 0.0 0
M  V30 6 C 5.1961 -0.5 0.0 0
M  V30 7 C 4.3301 -1.9999 0.0 0
M  V30 8 C 4.3301 0.0 0.0 0
M  V30 9 C 3.4641 -1.5 0.0 0
M  V30 10 C 3.4641 -0.5 0.0 0
M  V30 11 C 2.598 0.0 0.0 0
M  V30 12 N 1.732 -0.5 0.0 0
M  V30 13 C 0.866 0.0 0.0 0
M  V30 14 O 0.866 1.0 0.0 0
M  V30 15 C 0.0 -0.5 0.0 0
M  V30 16 C 0.0 -1.4999 0.0 0
M  V30 17 C -0.866 0.0 0.0 0
M  V30 18 C -0.866 -1.9999 0.0 0
M  V30 19 C -1.732 -0.4999 0.0 0
M  V30 20 C -1.732 -1.4999 0.0 0
M  V30 21 C -1.0739 -2.9781 0.0 0
M  V30 22 N -2.4751 -2.1691 0.0 0
M  V30 23 C -2.0684 -3.0826 0.0 0
M  V30 24 C -0.4048 -3.7212 0.0 0
M  V30 25 C -3.4533 -1.9612 0.0 0
M  V30 26 C -2.5684 -3.9487 0.0 0
M  V30 27 C -4.1224 -2.7043 0.0 0
M  V30 28 C -5.1006 -2.4964 0.0 0
M  V30 29 C -3.8134 -3.6554 0.0 0
M  V30 30 C -5.7697 -3.2395 0.0 0
M  V30 31 C -4.4825 -4.3985 0.0 0
M  V30 32 C -5.4607 -4.1906 0.0 0
M  V30 33 C -6.1298 -4.9337 0.0 0
M  V30 34 C -7.108 -4.7258 0.0 0
M  V30 35 C -5.8208 -5.8848 0.0 0
M  V30 36 C -7.417 -3.7748 0.0 0
M  V30 37 C -7.7771 -5.469 0.0 0
M  V30 38 C -6.4899 -6.6279 0.0 0
M  V30 39 O -6.7478 -3.0316 0.0 0
M  V30 40 O -8.3951 -3.5669 0.0 0
M  V30 41 C -7.4681 -6.42 0.0 0
M  V30 END ATOM
M  V30 BEGIN BOND
M  V30 1 2 1 2
M  V30 2 1 2 3
M  V30 3 1 2 4
M  V30 4 1 3 5
M  V30 5 2 4 6
M  V30 6 1 4 7
M  V30 7 1 6 8
M  V30 8 2 7 9
M  V30 9 2 8 10
M  V30 10 1 10 11
M  V30 11 1 11 12
M  V30 12 1 12 13
M  V30 13 2 13 14
M  V30 14 1 13 15
M  V30 15 2 15 16
M  V30 16 1 15 17
M  V30 17 1 16 18
M  V30 18 2 17 19
M  V30 19 2 18 20
M  V30 20 1 18 21
M  V30 21 1 20 22
M  V30 22 2 21 23
M  V30 23 1 21 24
M  V30 24 1 22 25
M  V30 25 1 23 26
M  V30 26 1 25 27
M  V30 27 2 27 28
M  V30 28 1 27 29
M  V30 29 1 28 30
M  V30 30 2 29 31
M  V30 31 2 30 32
M  V30 32 1 32 33
M  V30 33 2 33 34
M  V30 34 1 33 35
M  V30 35 1 34 36
M  V30 36 1 34 37
M  V30 37 2 35 38
M  V30 38 2 36 39
M  V30 39 1 36 40
M  V30 40 2 37 41
M  V30 41 1 9 10
M  V30 42 1 19 20
M  V30 43 1 22 23
M  V30 44 1 31 32
M  V30 45 1 38 41
M  V30 END BOND
M  V30 END CTAB
M  END
>  <Molecule ChEMBL ID>
CHEMBL3695774

>  <Smiles>
COC(=O)c1ccc(CNC(=O)c2ccc3c(c2)c(C)c(C)n3Cc2ccc(-c3ccccc3C(=O)O)cc2)cc1

>  <IC50_nM>
2

>  <Assay Description>
Lanthascreen Competitive Binding Assay: The assay was performed according to manufacturer protocol. A mixture of nM GST-PPARG-LBD, 5 nM Tb-GST-antibody, 5 nM Fluormone Pan-PPAR Green, and serial dilutions of the experimental compound, beginning at 10 ׬M downwards, was added to wells of black 384-well low-volume plates (Greiner) to a total volume of 18 ׬L. All dilutions were made in TR-FRET assay buffer C. DMSO at 2% final concentration was used as a no-ligand control. Experiment was performed in triplicate, and incubated for 2 hours in the dark prior to assay read in Perkin Elmer ViewLux ultra HTS microplate reader. FRET signal was measured by excitation at 340 nm and emission at 520 nm for fluorescein and 490 nm for terbium. Fold change over DMSO was calculated using GraphPad Prism Software (La Jolla, Calif.) by calculating 520 nm/490 nm ratio. Graphs were plotted as fold change of FRET signal for compound treatment over DMSO-only control.

$$$$
CHEMBL3699377
Actelion Java MolfileCreator 2.0

  0  0  0  0  0  0              0 V3000
M  V30 BEGIN CTAB
M  V30 COUNTS 40 44 0 0 0
M  V30 BEGIN ATOM
M  V30 1 Cl 2.598 -1.9999 0.0 0
M  V30 2 C 3.4641 -1.4999 0.0 0
M  V30 3 C 4.3301 -1.9999 0.0 0
M  V30 4 C 3.4641 -0.5 0.0 0
M  V30 5 C 5.1961 -1.4999 0.0 0
M  V30 6 C 4.3301 -2.9999 0.0 0
M  V30 7 C 4.3301 0.0 0.0 0
M  V30 8 C 2.598 0.0 0.0 0 CFG=2
M  V30 9 C 5.1961 -0.4999 0.0 0
M  V30 10 F 5.3301 -2.9999 0.0 0
M  V30 11 F 4.3301 -3.9999 0.0 0
M  V30 12 F 3.3301 -3.0 0.0 0
M  V30 13 N 1.732 -0.5 0.0 0
M  V30 14 C 2.598 1.0 0.0 0
M  V30 15 C 0.866 0.0 0.0 0
M  V30 16 O 0.866 1.0 0.0 0
M  V30 17 C 0.0 -0.5 0.0 0
M  V30 18 C 0.0 -1.4999 0.0 0
M  V30 19 C -0.866 0.0 0.0 0
M  V30 20 C -0.866 -1.9999 0.0 0
M  V30 21 C -1.732 -0.4999 0.0 0
M  V30 22 C -1.732 -1.4999 0.0 0
M  V30 23 C -1.0739 -2.9781 0.0 0
M  V30 24 N -2.4751 -2.1691 0.0 0
M  V30 25 C -2.0684 -3.0826 0.0 0
M  V30 26 C -0.4048 -3.7212 0.0 0
M  V30 27 C -3.4533 -1.9612 0.0 0
M  V30 28 C -2.5684 -3.9487 0.0 0
M  V30 29 C -4.1224 -2.7043 0.0 0
M  V30 30 C -5.1006 -2.4964 0.0 0
M  V30 31 C -3.8134 -3.6554 0.0 0
M  V30 32 C -5.7697 -3.2395 0.0 0
M  V30 33 C -4.4825 -4.3985 0.0 0
M  V30 34 C -5.4607 -4.1906 0.0 0
M  V30 35 C -6.1298 -4.9337 0.0 0
M  V30 36 C -7.108 -4.7258 0.0 0
M  V30 37 C -5.8208 -5.8848 0.0 0
M  V30 38 C -7.7771 -5.469 0.0 0
M  V30 39 C -6.4899 -6.6279 0.0 0
M  V30 40 C -7.4681 -6.42 0.0 0
M  V30 END ATOM
M  V30 BEGIN BOND
M  V30 1 1 1 2
M  V30 2 2 2 3
M  V30 3 1 2 4
M  V30 4 1 3 5
M  V30 5 1 3 6
M  V30 6 2 4 7
M  V30 7 1 4 8
M  V30 8 2 5 9
M  V30 9 1 6 10
M  V30 10 1 6 11
M  V30 11 1 6 12
M  V30 12 1 8 13
M  V30 13 1 8 14 CFG=3
M  V30 14 1 13 15
M  V30 15 2 15 16
M  V30 16 1 15 17
M  V30 17 2 17 18
M  V30 18 1 17 19
M  V30 19 1 18 20
M  V30 20 2 19 21
M  V30 21 2 20 22
M  V30 22 1 20 23
M  V30 23 1 22 24
M  V30 24 2 23 25
M  V30 25 1 23 26
M  V30 26 1 24 27
M  V30 27 1 25 28
M  V30 28 1 27 29
M  V30 29 2 29 30
M  V30 30 1 29 31
M  V30 31 1 30 32
M  V30 32 2 31 33
M  V30 33 2 32 34
M  V30 34 1 34 35
M  V30 35 2 35 36
M  V30 36 1 35 37
M  V30 37 1 36 38
M  V30 38 2 37 39
M  V30 39 2 38 40
M  V30 40 1 7 9
M  V30 41 1 21 22
M  V30 42 1 24 25
M  V30 43 1 33 34
M  V30 44 1 39 40
M  V30 END BOND
M  V30 BEGIN COLLECTION
M  V30 MDLV30/STEABS ATOMS=(1 8)
M  V30 END COLLECTION
M  V30 END CTAB
M  END
>  <Molecule ChEMBL ID>
CHEMBL3699377

>  <Smiles>
Cc1c(C)n(Cc2ccc(-c3ccccc3)cc2)c2ccc(C(=O)N[C@H](C)c3cccc(C(F)(F)F)c3Cl)cc12

>  <IC50_nM>
2

>  <Assay Description>
Lanthascreen Competitive Binding Assay: The assay was performed according to manufacturer protocol. A mixture of nM GST-PPARG-LBD, 5 nM Tb-GST-antibody, 5 nM Fluormone Pan-PPAR Green, and serial dilutions of the experimental compound, beginning at 10 ׬M downwards, was added to wells of black 384-well low-volume plates (Greiner) to a total volume of 18 ׬L. All dilutions were made in TR-FRET assay buffer C. DMSO at 2% final concentration was used as a no-ligand control. Experiment was performed in triplicate, and incubated for 2 hours in the dark prior to assay read in Perkin Elmer ViewLux ultra HTS microplate reader. FRET signal was measured by excitation at 340 nm and emission at 520 nm for fluorescein and 490 nm for terbium. Fold change over DMSO was calculated using GraphPad Prism Software (La Jolla, Calif.) by calculating 520 nm/490 nm ratio. Graphs were plotted as fold change of FRET signal for compound treatment over DMSO-only control.

$$$$
CHEMBL179330
Actelion Java MolfileCreator 2.0

  0  0  0  0  0  0              0 V3000
M  V30 BEGIN CTAB
M  V30 COUNTS 38 41 0 0 0
M  V30 BEGIN ATOM
M  V30 1 F 4.8174 -4.7021 0.0 0
M  V30 2 C 5.0253 -3.7239 0.0 0
M  V30 3 F 4.0471 -3.516 0.0 0
M  V30 4 F 5.2332 -2.7458 0.0 0
M  V30 5 O 6.0034 -3.9318 0.0 0
M  V30 6 C 6.6726 -3.1887 0.0 0
M  V30 7 C 6.3636 -2.2376 0.0 0
M  V30 8 C 7.6507 -3.3966 0.0 0
M  V30 9 C 7.0327 -1.4945 0.0 0
M  V30 10 C 8.3198 -2.6534 0.0 0
M  V30 11 C 8.0108 -1.7024 0.0 0
M  V30 12 C 6.9282 -0.5 0.0 0
M  V30 13 N 8.5108 -0.8364 0.0 0
M  V30 14 C 7.8417 -0.0932 0.0 0
M  V30 15 C 6.0621 0.0 0.0 0
M  V30 16 C 9.5054 -0.7318 0.0 0
M  V30 17 C 8.0496 0.8848 0.0 0
M  V30 18 C 5.1961 -0.5 0.0 0
M  V30 19 O 10.0931 -1.5408 0.0 0
M  V30 20 C 9.9121 0.1816 0.0 0
M  V30 21 C 4.3301 0.0 0.0 0
M  V30 22 C 5.1961 -1.4999 0.0 0
M  V30 23 C 10.9066 0.2861 0.0 0
M  V30 24 C 9.3243 0.9906 0.0 0
M  V30 25 C 3.4641 -0.5 0.0 0
M  V30 26 C 4.3301 -1.9999 0.0 0
M  V30 27 C 11.3133 1.1997 0.0 0
M  V30 28 C 9.731 1.9042 0.0 0
M  V30 29 O 2.598 0.0 0.0 0
M  V30 30 C 3.4641 -1.4999 0.0 0
M  V30 31 C 10.7256 2.0087 0.0 0
M  V30 32 C 1.732 -0.5 0.0 0 CFG=2
M  V30 33 O 11.1323 2.9223 0.0 0
M  V30 34 C 0.866 0.0 0.0 0
M  V30 35 C 1.732 -1.5 0.0 0
M  V30 36 C 10.5445 3.7313 0.0 0
M  V30 37 O 0.866 1.0 0.0 0
M  V30 38 O 0.0 -0.5 0.0 0
M  V30 END ATOM
M  V30 BEGIN BOND
M  V30 1 1 1 2
M  V30 2 1 2 3
M  V30 3 1 2 4
M  V30 4 1 2 5
M  V30 5 1 5 6
M  V30 6 2 6 7
M  V30 7 1 6 8
M  V30 8 1 7 9
M  V30 9 2 8 10
M  V30 10 2 9 11
M  V30 11 1 9 12
M  V30 12 1 11 13
M  V30 13 2 12 14
M  V30 14 1 12 15
M  V30 15 1 13 16
M  V30 16 1 14 17
M  V30 17 1 15 18
M  V30 18 2 16 19
M  V30 19 1 16 20
M  V30 20 2 18 21
M  V30 21 1 18 22
M  V30 22 2 20 23
M  V30 23 1 20 24
M  V30 24 1 21 25
M  V30 25 2 22 26
M  V30 26 1 23 27
M  V30 27 2 24 28
M  V30 28 1 25 29
M  V30 29 2 25 30
M  V30 30 2 27 31
M  V30 31 1 29 32
M  V30 32 1 31 33
M  V30 33 1 32 34
M  V30 34 1 32 35 CFG=1
M  V30 35 1 33 36
M  V30 36 2 34 37
M  V30 37 1 34 38
M  V30 38 1 10 11
M  V30 39 1 13 14
M  V30 40 1 26 30
M  V30 41 1 28 31
M  V30 END BOND
M  V30 BEGIN COLLECTION
M  V30 MDLV30/STEABS ATOMS=(1 32)
M  V30 END COLLECTION
M  V30 END CTAB
M  END
>  <Molecule ChEMBL ID>
CHEMBL179330

>  <Smiles>
COc1ccc(C(=O)n2c(C)c(Cc3cccc(O[C@@H](C)C(=O)O)c3)c3cc(OC(F)(F)F)ccc32)cc1

>  <IC50_nM>
2

>  <Assay Description>
Inhibition of human peroxisome proliferator activated receptor gamma binding

$$$$
CHEMBL1946757
Actelion Java MolfileCreator 2.0

  0  0  0  0  0  0              0 V3000
M  V30 BEGIN CTAB
M  V30 COUNTS 39 43 0 0 0
M  V30 BEGIN ATOM
M  V30 1 Cl 4.3301 0.9999 0.0 0
M  V30 2 C 4.3301 0.0 0.0 0
M  V30 3 C 3.4641 -0.5 0.0 0
M  V30 4 C 5.1961 -0.5 0.0 0
M  V30 5 O 2.598 0.0 0.0 0
M  V30 6 C 3.4641 -1.5 0.0 0
M  V30 7 C 5.1961 -1.5 0.0 0
M  V30 8 C 1.732 -0.5 0.0 0 CFG=1
M  V30 9 C 4.3301 -2.0 0.0 0
M  V30 10 C 0.866 0.0 0.0 0
M  V30 11 C 1.732 -1.5 0.0 0
M  V30 12 C 4.3301 -3.0 0.0 0
M  V30 13 O 0.866 1.0 0.0 0
M  V30 14 O 0.0 -0.5 0.0 0
M  V30 15 N 5.1961 -3.5 0.0 0
M  V30 16 C 5.3006 -4.4945 0.0 0
M  V30 17 C 6.1096 -3.0932 0.0 0
M  V30 18 O 4.5575 -5.1636 0.0 0
M  V30 19 N 6.2788 -4.7024 0.0 0
M  V30 20 C 6.7788 -3.8364 0.0 0
M  V30 21 C 6.4187 -2.1422 0.0 0
M  V30 22 C 6.6855 -5.6159 0.0 0
M  V30 23 C 7.7569 -3.6284 0.0 0
M  V30 24 C 7.3968 -1.9342 0.0 0
M  V30 25 N 6.1855 -6.482 0.0 0
M  V30 26 C 7.6637 -5.8238 0.0 0
M  V30 27 C 8.0659 -2.6774 0.0 0
M  V30 28 O 6.8546 -7.2251 0.0 0
M  V30 29 C 7.7682 -6.8184 0.0 0
M  V30 30 C 8.4727 -5.2361 0.0 0
M  V30 31 C 9.0441 -2.4695 0.0 0
M  V30 32 C 8.6817 -7.2251 0.0 0
M  V30 33 C 9.3862 -5.6428 0.0 0
M  V30 34 F 8.8362 -1.4913 0.0 0
M  V30 35 F 10.0222 -2.2616 0.0 0
M  V30 36 F 9.252 -3.4476 0.0 0
M  V30 37 C 9.4908 -6.6373 0.0 0
M  V30 38 O 10.4043 -7.0441 0.0 0
M  V30 39 C 11.2133 -6.4563 0.0 0
M  V30 END ATOM
M  V30 BEGIN BOND
M  V30 1 1 1 2
M  V30 2 2 2 3
M  V30 3 1 2 4
M  V30 4 1 3 5
M  V30 5 1 3 6
M  V30 6 2 4 7
M  V30 7 1 5 8
M  V30 8 2 6 9
M  V30 9 1 8 10
M  V30 10 1 8 11 CFG=3
M  V30 11 1 9 12
M  V30 12 2 10 13
M  V30 13 1 10 14
M  V30 14 1 12 15
M  V30 15 1 15 16
M  V30 16 1 15 17
M  V30 17 2 16 18
M  V30 18 1 16 19
M  V30 19 2 17 20
M  V30 20 1 17 21
M  V30 21 1 19 22
M  V30 22 1 20 23
M  V30 23 2 21 24
M  V30 24 2 22 25
M  V30 25 1 22 26
M  V30 26 2 23 27
M  V30 27 1 25 28
M  V30 28 2 26 29
M  V30 29 1 26 30
M  V30 30 1 27 31
M  V30 31 1 29 32
M  V30 32 2 30 33
M  V30 33 1 31 34
M  V30 34 1 31 35
M  V30 35 1 31 36
M  V30 36 2 32 37
M  V30 37 1 37 38
M  V30 38 1 38 39
M  V30 39 1 7 9
M  V30 40 1 19 20
M  V30 41 1 24 27
M  V30 42 1 28 29
M  V30 43 1 33 37
M  V30 END BOND
M  V30 BEGIN COLLECTION
M  V30 MDLV30/STEABS ATOMS=(1 8)
M  V30 END COLLECTION
M  V30 END CTAB
M  END
>  <Molecule ChEMBL ID>
CHEMBL1946757

>  <Smiles>
COc1ccc2c(-n3c(=O)n(Cc4ccc(Cl)c(O[C@H](C)C(=O)O)c4)c4ccc(C(F)(F)F)cc43)noc2c1

>  <IC50_nM>
2.3

>  <Assay Description>
Binding affinity to human PPARgamma by scintillation proximity assay

$$$$
CHEMBL3699381
Actelion Java MolfileCreator 2.0

  0  0  0  0  0  0              0 V3000
M  V30 BEGIN CTAB
M  V30 COUNTS 38 42 0 0 0
M  V30 BEGIN ATOM
M  V30 1 F 2.598 -1.9999 0.0 0
M  V30 2 C 3.4641 -1.4999 0.0 0
M  V30 3 C 4.3301 -1.9999 0.0 0
M  V30 4 C 3.4641 -0.5 0.0 0
M  V30 5 F 4.3301 -2.9999 0.0 0
M  V30 6 C 5.1961 -1.4999 0.0 0
M  V30 7 C 4.3301 0.0 0.0 0
M  V30 8 C 2.598 0.0 0.0 0 CFG=2
M  V30 9 C 5.1961 -0.4999 0.0 0
M  V30 10 F 4.3301 1.0 0.0 0
M  V30 11 N 1.732 -0.5 0.0 0
M  V30 12 C 2.598 1.0 0.0 0
M  V30 13 C 0.866 0.0 0.0 0
M  V30 14 O 0.866 1.0 0.0 0
M  V30 15 C 0.0 -0.5 0.0 0
M  V30 16 C 0.0 -1.4999 0.0 0
M  V30 17 C -0.866 0.0 0.0 0
M  V30 18 C -0.866 -1.9999 0.0 0
M  V30 19 C -1.732 -0.4999 0.0 0
M  V30 20 C -1.732 -1.4999 0.0 0
M  V30 21 C -1.0739 -2.9781 0.0 0
M  V30 22 N -2.4751 -2.1691 0.0 0
M  V30 23 C -2.0684 -3.0826 0.0 0
M  V30 24 C -0.4048 -3.7212 0.0 0
M  V30 25 C -3.4533 -1.9612 0.0 0
M  V30 26 C -2.5684 -3.9487 0.0 0
M  V30 27 C -4.1224 -2.7043 0.0 0
M  V30 28 C -5.1006 -2.4964 0.0 0
M  V30 29 C -3.8134 -3.6554 0.0 0
M  V30 30 C -5.7697 -3.2395 0.0 0
M  V30 31 C -4.4825 -4.3985 0.0 0
M  V30 32 C -5.4607 -4.1906 0.0 0
M  V30 33 C -6.1298 -4.9337 0.0 0
M  V30 34 C -7.108 -4.7258 0.0 0
M  V30 35 C -5.8208 -5.8848 0.0 0
M  V30 36 C -7.7771 -5.469 0.0 0
M  V30 37 C -6.4899 -6.6279 0.0 0
M  V30 38 C -7.4681 -6.42 0.0 0
M  V30 END ATOM
M  V30 BEGIN BOND
M  V30 1 1 1 2
M  V30 2 2 2 3
M  V30 3 1 2 4
M  V30 4 1 3 5
M  V30 5 1 3 6
M  V30 6 2 4 7
M  V30 7 1 4 8
M  V30 8 2 6 9
M  V30 9 1 7 10
M  V30 10 1 8 11
M  V30 11 1 8 12 CFG=3
M  V30 12 1 11 13
M  V30 13 2 13 14
M  V30 14 1 13 15
M  V30 15 2 15 16
M  V30 16 1 15 17
M  V30 17 1 16 18
M  V30 18 2 17 19
M  V30 19 2 18 20
M  V30 20 1 18 21
M  V30 21 1 20 22
M  V30 22 2 21 23
M  V30 23 1 21 24
M  V30 24 1 22 25
M  V30 25 1 23 26
M  V30 26 1 25 27
M  V30 27 2 27 28
M  V30 28 1 27 29
M  V30 29 1 28 30
M  V30 30 2 29 31
M  V30 31 2 30 32
M  V30 32 1 32 33
M  V30 33 2 33 34
M  V30 34 1 33 35
M  V30 35 1 34 36
M  V30 36 2 35 37
M  V30 37 2 36 38
M  V30 38 1 7 9
M  V30 39 1 19 20
M  V30 40 1 22 23
M  V30 41 1 31 32
M  V30 42 1 37 38
M  V30 END BOND
M  V30 BEGIN COLLECTION
M  V30 MDLV30/STEABS ATOMS=(1 8)
M  V30 END COLLECTION
M  V30 END CTAB
M  END
>  <Molecule ChEMBL ID>
CHEMBL3699381

>  <Smiles>
Cc1c(C)n(Cc2ccc(-c3ccccc3)cc2)c2ccc(C(=O)N[C@H](C)c3c(F)ccc(F)c3F)cc12

>  <IC50_nM>
3

>  <Assay Description>
Lanthascreen Competitive Binding Assay: The assay was performed according to manufacturer protocol. A mixture of nM GST-PPARG-LBD, 5 nM Tb-GST-antibody, 5 nM Fluormone Pan-PPAR Green, and serial dilutions of the experimental compound, beginning at 10 ׬M downwards, was added to wells of black 384-well low-volume plates (Greiner) to a total volume of 18 ׬L. All dilutions were made in TR-FRET assay buffer C. DMSO at 2% final concentration was used as a no-ligand control. Experiment was performed in triplicate, and incubated for 2 hours in the dark prior to assay read in Perkin Elmer ViewLux ultra HTS microplate reader. FRET signal was measured by excitation at 340 nm and emission at 520 nm for fluorescein and 490 nm for terbium. Fold change over DMSO was calculated using GraphPad Prism Software (La Jolla, Calif.) by calculating 520 nm/490 nm ratio. Graphs were plotted as fold change of FRET signal for compound treatment over DMSO-only control.

$$$$
CHEMBL178236
Actelion Java MolfileCreator 2.0

  0  0  0  0  0  0              0 V3000
M  V30 BEGIN CTAB
M  V30 COUNTS 39 42 0 0 0
M  V30 BEGIN ATOM
M  V30 1 F 4.8174 -4.7021 0.0 0
M  V30 2 C 5.0253 -3.7239 0.0 0
M  V30 3 F 4.0471 -3.516 0.0 0
M  V30 4 F 5.2332 -2.7458 0.0 0
M  V30 5 O 6.0034 -3.9318 0.0 0
M  V30 6 C 6.6726 -3.1887 0.0 0
M  V30 7 C 6.3636 -2.2376 0.0 0
M  V30 8 C 7.6507 -3.3966 0.0 0
M  V30 9 C 7.0327 -1.4945 0.0 0
M  V30 10 C 8.3198 -2.6534 0.0 0
M  V30 11 C 8.0108 -1.7024 0.0 0
M  V30 12 C 6.9282 -0.5 0.0 0
M  V30 13 N 8.5108 -0.8364 0.0 0
M  V30 14 C 7.8417 -0.0932 0.0 0
M  V30 15 C 6.0621 0.0 0.0 0
M  V30 16 C 9.5054 -0.7318 0.0 0
M  V30 17 C 8.0496 0.8848 0.0 0
M  V30 18 C 5.1961 -0.5 0.0 0
M  V30 19 O 10.0931 -1.5408 0.0 0
M  V30 20 C 9.9121 0.1816 0.0 0
M  V30 21 C 4.3301 0.0 0.0 0
M  V30 22 C 5.1961 -1.4999 0.0 0
M  V30 23 C 10.9066 0.2861 0.0 0
M  V30 24 C 9.3243 0.9906 0.0 0
M  V30 25 C 3.4641 -0.5 0.0 0
M  V30 26 C 4.3301 -1.9999 0.0 0
M  V30 27 C 11.3133 1.1997 0.0 0
M  V30 28 C 9.731 1.9042 0.0 0
M  V30 29 O 2.598 0.0 0.0 0
M  V30 30 C 3.4641 -1.4999 0.0 0
M  V30 31 C 10.7256 2.0087 0.0 0
M  V30 32 C 1.732 -0.5 0.0 0 CFG=2
M  V30 33 O 11.1323 2.9223 0.0 0
M  V30 34 C 1.732 -1.5 0.0 0
M  V30 35 C 0.866 0.0 0.0 0
M  V30 36 C 10.5445 3.7313 0.0 0
M  V30 37 O 0.866 -2.0 0.0 0
M  V30 38 O 2.598 -1.9999 0.0 0
M  V30 39 C 0.0 -0.5 0.0 0
M  V30 END ATOM
M  V30 BEGIN BOND
M  V30 1 1 1 2
M  V30 2 1 2 3
M  V30 3 1 2 4
M  V30 4 1 2 5
M  V30 5 1 5 6
M  V30 6 2 6 7
M  V30 7 1 6 8
M  V30 8 1 7 9
M  V30 9 2 8 10
M  V30 10 2 9 11
M  V30 11 1 9 12
M  V30 12 1 11 13
M  V30 13 2 12 14
M  V30 14 1 12 15
M  V30 15 1 13 16
M  V30 16 1 14 17
M  V30 17 1 15 18
M  V30 18 2 16 19
M  V30 19 1 16 20
M  V30 20 2 18 21
M  V30 21 1 18 22
M  V30 22 2 20 23
M  V30 23 1 20 24
M  V30 24 1 21 25
M  V30 25 2 22 26
M  V30 26 1 23 27
M  V30 27 2 24 28
M  V30 28 1 25 29
M  V30 29 2 25 30
M  V30 30 2 27 31
M  V30 31 1 32 29 CFG=3
M  V30 32 1 31 33
M  V30 33 1 32 34
M  V30 34 1 32 35
M  V30 35 1 33 36
M  V30 36 2 34 37
M  V30 37 1 34 38
M  V30 38 1 35 39
M  V30 39 1 10 11
M  V30 40 1 13 14
M  V30 41 1 26 30
M  V30 42 1 28 31
M  V30 END BOND
M  V30 BEGIN COLLECTION
M  V30 MDLV30/STERAC1 ATOMS=(1 32)
M  V30 END COLLECTION
M  V30 END CTAB
M  END
>  <Molecule ChEMBL ID>
CHEMBL178236

>  <Smiles>
CCC(Oc1cccc(Cc2c(C)n(C(=O)c3ccc(OC)cc3)c3ccc(OC(F)(F)F)cc23)c1)C(=O)O

>  <IC50_nM>
3

>  <Assay Description>
In vitro inhibition of human Peroxisome proliferator activated receptor gamma

$$$$
CHEMBL359548
Actelion Java MolfileCreator 2.0

  0  0  0  0  0  0              0 V3000
M  V30 BEGIN CTAB
M  V30 COUNTS 38 41 0 0 0
M  V30 BEGIN ATOM
M  V30 1 F 4.8174 -4.7021 0.0 0
M  V30 2 C 5.0253 -3.7239 0.0 0
M  V30 3 F 4.0471 -3.516 0.0 0
M  V30 4 F 5.2332 -2.7458 0.0 0
M  V30 5 O 6.0034 -3.9318 0.0 0
M  V30 6 C 6.6726 -3.1887 0.0 0
M  V30 7 C 6.3636 -2.2376 0.0 0
M  V30 8 C 7.6507 -3.3966 0.0 0
M  V30 9 C 7.0327 -1.4945 0.0 0
M  V30 10 C 8.3198 -2.6534 0.0 0
M  V30 11 C 8.0108 -1.7024 0.0 0
M  V30 12 C 6.9282 -0.5 0.0 0
M  V30 13 N 8.5108 -0.8364 0.0 0
M  V30 14 C 7.8417 -0.0932 0.0 0
M  V30 15 C 6.0621 0.0 0.0 0
M  V30 16 C 9.5054 -0.7318 0.0 0
M  V30 17 C 8.0496 0.8848 0.0 0
M  V30 18 C 5.1961 -0.5 0.0 0
M  V30 19 O 10.0931 -1.5408 0.0 0
M  V30 20 C 9.9121 0.1816 0.0 0
M  V30 21 C 4.3301 0.0 0.0 0
M  V30 22 C 5.1961 -1.4999 0.0 0
M  V30 23 C 10.9066 0.2861 0.0 0
M  V30 24 C 9.3243 0.9906 0.0 0
M  V30 25 C 3.4641 -0.5 0.0 0
M  V30 26 C 4.3301 -1.9999 0.0 0
M  V30 27 C 11.3133 1.1997 0.0 0
M  V30 28 C 9.731 1.9042 0.0 0
M  V30 29 O 2.598 0.0 0.0 0
M  V30 30 C 3.4641 -1.4999 0.0 0
M  V30 31 C 10.7256 2.0087 0.0 0
M  V30 32 C 1.732 -0.5 0.0 0 CFG=1
M  V30 33 O 11.1323 2.9223 0.0 0
M  V30 34 C 0.866 0.0 0.0 0
M  V30 35 C 1.732 -1.5 0.0 0
M  V30 36 C 10.5445 3.7313 0.0 0
M  V30 37 O 0.866 1.0 0.0 0
M  V30 38 O 0.0 -0.5 0.0 0
M  V30 END ATOM
M  V30 BEGIN BOND
M  V30 1 1 1 2
M  V30 2 1 2 3
M  V30 3 1 2 4
M  V30 4 1 2 5
M  V30 5 1 5 6
M  V30 6 2 6 7
M  V30 7 1 6 8
M  V30 8 1 7 9
M  V30 9 2 8 10
M  V30 10 2 9 11
M  V30 11 1 9 12
M  V30 12 1 11 13
M  V30 13 2 12 14
M  V30 14 1 12 15
M  V30 15 1 13 16
M  V30 16 1 14 17
M  V30 17 1 15 18
M  V30 18 2 16 19
M  V30 19 1 16 20
M  V30 20 2 18 21
M  V30 21 1 18 22
M  V30 22 2 20 23
M  V30 23 1 20 24
M  V30 24 1 21 25
M  V30 25 2 22 26
M  V30 26 1 23 27
M  V30 27 2 24 28
M  V30 28 1 25 29
M  V30 29 2 25 30
M  V30 30 2 27 31
M  V30 31 1 29 32
M  V30 32 1 31 33
M  V30 33 1 32 34
M  V30 34 1 32 35 CFG=3
M  V30 35 1 33 36
M  V30 36 2 34 37
M  V30 37 1 34 38
M  V30 38 1 10 11
M  V30 39 1 13 14
M  V30 40 1 26 30
M  V30 41 1 28 31
M  V30 END BOND
M  V30 BEGIN COLLECTION
M  V30 MDLV30/STEABS ATOMS=(1 32)
M  V30 END COLLECTION
M  V30 END CTAB
M  END
>  <Molecule ChEMBL ID>
CHEMBL359548

>  <Smiles>
COc1ccc(C(=O)n2c(C)c(Cc3cccc(O[C@H](C)C(=O)O)c3)c3cc(OC(F)(F)F)ccc32)cc1

>  <IC50_nM>
3

>  <Assay Description>
In vitro inhibition of human Peroxisome proliferator activated receptor gamma

$$$$
CHEMBL376627
Actelion Java MolfileCreator 2.0

  0  0  0  0  0  0              0 V3000
M  V30 BEGIN CTAB
M  V30 COUNTS 40 44 0 0 0
M  V30 BEGIN ATOM
M  V30 1 S 3.8971 0.0 0.0 0
M  V30 2 O 4.6471 1.299 0.0 0
M  V30 3 O 3.1471 1.299 0.0 0
M  V30 4 N 2.598 -0.75 0.0 0
M  V30 5 C 5.1961 -0.75 0.0 0
M  V30 6 C 1.299 0.0 0.0 0
M  V30 7 C 5.1961 -2.25 0.0 0
M  V30 8 C 6.4951 0.0 0.0 0
M  V30 9 O 1.299 1.5 0.0 0
M  V30 10 C 0.0 -0.75 0.0 0
M  V30 11 C 6.4951 -3.0 0.0 0
M  V30 12 C 7.7942 -0.75 0.0 0
M  V30 13 N -1.3703 -0.1398 0.0 0
M  V30 14 C -0.1567 -2.2417 0.0 0
M  V30 15 C 7.7942 -2.25 0.0 0
M  V30 16 C -2.374 -1.2546 0.0 0
M  V30 17 C -1.6821 1.3273 0.0 0
M  V30 18 C 0.9579 -3.2454 0.0 0
M  V30 19 C -1.624 -2.5536 0.0 0
M  V30 20 C -3.874 -1.2546 0.0 0
M  V30 21 C -3.1087 1.7908 0.0 0
M  V30 22 C 0.646 -4.7127 0.0 0
M  V30 23 C 2.3845 -2.7819 0.0 0
M  V30 24 C -2.374 -3.8526 0.0 0
M  V30 25 C -4.624 -2.5536 0.0 0
M  V30 26 C -3.4206 3.258 0.0 0
M  V30 27 C -4.2234 0.7871 0.0 0
M  V30 28 C 1.7607 -5.7164 0.0 0
M  V30 29 C 3.4992 -3.7856 0.0 0
M  V30 30 C -3.874 -3.8526 0.0 0
M  V30 31 C -4.8472 3.7216 0.0 0
M  V30 32 C -5.65 1.2506 0.0 0
M  V30 33 C 3.1873 -5.2528 0.0 0
M  V30 34 C -5.9619 2.7179 0.0 0
M  V30 35 C -5.159 5.1888 0.0 0
M  V30 36 O 4.302 -6.2565 0.0 0
M  V30 37 F -6.6263 4.8769 0.0 0
M  V30 38 F -5.4709 6.656 0.0 0
M  V30 39 F -3.6918 5.5006 0.0 0
M  V30 40 C 5.7286 -5.793 0.0 0
M  V30 END ATOM
M  V30 BEGIN BOND
M  V30 1 2 1 2
M  V30 2 2 1 3
M  V30 3 1 1 4
M  V30 4 1 1 5
M  V30 5 1 4 6
M  V30 6 2 5 7
M  V30 7 1 5 8
M  V30 8 2 6 9
M  V30 9 1 6 10
M  V30 10 1 7 11
M  V30 11 2 8 12
M  V30 12 1 10 13
M  V30 13 2 10 14
M  V30 14 2 11 15
M  V30 15 1 13 16
M  V30 16 1 13 17
M  V30 17 1 14 18
M  V30 18 1 14 19
M  V30 19 1 16 20
M  V30 20 1 17 21
M  V30 21 2 18 22
M  V30 22 1 18 23
M  V30 23 1 19 24
M  V30 24 2 20 25
M  V30 25 2 21 26
M  V30 26 1 21 27
M  V30 27 1 22 28
M  V30 28 2 23 29
M  V30 29 2 24 30
M  V30 30 1 26 31
M  V30 31 2 27 32
M  V30 32 2 28 33
M  V30 33 2 31 34
M  V30 34 1 31 35
M  V30 35 1 33 36
M  V30 36 1 35 37
M  V30 37 1 35 38
M  V30 38 1 35 39
M  V30 39 1 36 40
M  V30 40 1 12 15
M  V30 41 2 16 19
M  V30 42 1 25 30
M  V30 43 1 29 33
M  V30 44 1 32 34
M  V30 END BOND
M  V30 END CTAB
M  END
>  <Molecule ChEMBL ID>
CHEMBL376627

>  <Smiles>
COc1ccc(-c2c(C(=O)NS(=O)(=O)c3ccccc3)n(Cc3cccc(C(F)(F)F)c3)c3ccccc23)cc1

>  <IC50_nM>
3

>  <Assay Description>
Displacement of Fluormone from PPAR gamma

$$$$
CHEMBL181554
Actelion Java MolfileCreator 2.0

  0  0  0  0  0  0              0 V3000
M  V30 BEGIN CTAB
M  V30 COUNTS 39 42 0 0 0
M  V30 BEGIN ATOM
M  V30 1 F 7.2261 -7.0531 0.0 0
M  V30 2 C 7.538 -5.5859 0.0 0
M  V30 3 F 6.0707 -5.274 0.0 0
M  V30 4 F 7.8498 -4.1187 0.0 0
M  V30 5 O 9.0052 -5.8978 0.0 0
M  V30 6 C 10.0089 -4.783 0.0 0
M  V30 7 C 9.5454 -3.3565 0.0 0
M  V30 8 C 11.4761 -5.0949 0.0 0
M  V30 9 C 10.5491 -2.2417 0.0 0
M  V30 10 C 12.4798 -3.9802 0.0 0
M  V30 11 C 12.0163 -2.5536 0.0 0
M  V30 12 C 10.3923 -0.75 0.0 0
M  V30 13 N 12.7663 -1.2546 0.0 0
M  V30 14 C 11.7626 -0.1398 0.0 0
M  V30 15 C 9.0932 0.0 0.0 0
M  V30 16 C 14.2581 -1.0978 0.0 0
M  V30 17 C 12.0745 1.3273 0.0 0
M  V30 18 C 7.7942 -0.75 0.0 0
M  V30 19 O 15.1397 -2.3113 0.0 0
M  V30 20 C 14.8682 0.2724 0.0 0
M  V30 21 C 6.4951 0.0 0.0 0
M  V30 22 C 7.7942 -2.25 0.0 0
M  V30 23 C 16.36 0.4292 0.0 0
M  V30 24 C 13.9865 1.486 0.0 0
M  V30 25 C 5.1961 -0.75 0.0 0
M  V30 26 C 6.4951 -3.0 0.0 0
M  V30 27 C 16.9701 1.7996 0.0 0
M  V30 28 C 14.5966 2.8563 0.0 0
M  V30 29 O 3.8971 0.0 0.0 0
M  V30 30 C 5.1961 -2.25 0.0 0
M  V30 31 C 16.0884 3.0131 0.0 0
M  V30 32 C 2.598 -0.75 0.0 0
M  V30 33 O 16.6985 4.3834 0.0 0
M  V30 34 C 1.299 0.0 0.0 0
M  V30 35 C 1.848 -2.049 0.0 0
M  V30 36 C 3.348 -2.049 0.0 0
M  V30 37 C 15.8168 5.5969 0.0 0
M  V30 38 O 1.299 1.5 0.0 0
M  V30 39 O 0.0 -0.75 0.0 0
M  V30 END ATOM
M  V30 BEGIN BOND
M  V30 1 1 1 2
M  V30 2 1 2 3
M  V30 3 1 2 4
M  V30 4 1 2 5
M  V30 5 1 5 6
M  V30 6 2 6 7
M  V30 7 1 6 8
M  V30 8 1 7 9
M  V30 9 2 8 10
M  V30 10 2 9 11
M  V30 11 1 9 12
M  V30 12 1 11 13
M  V30 13 2 12 14
M  V30 14 1 12 15
M  V30 15 1 13 16
M  V30 16 1 14 17
M  V30 17 1 15 18
M  V30 18 2 16 19
M  V30 19 1 16 20
M  V30 20 2 18 21
M  V30 21 1 18 22
M  V30 22 2 20 23
M  V30 23 1 20 24
M  V30 24 1 21 25
M  V30 25 2 22 26
M  V30 26 1 23 27
M  V30 27 2 24 28
M  V30 28 1 25 29
M  V30 29 2 25 30
M  V30 30 2 27 31
M  V30 31 1 29 32
M  V30 32 1 31 33
M  V30 33 1 32 34
M  V30 34 1 32 35
M  V30 35 1 32 36
M  V30 36 1 33 37
M  V30 37 2 34 38
M  V30 38 1 34 39
M  V30 39 1 10 11
M  V30 40 1 13 14
M  V30 41 1 26 30
M  V30 42 1 28 31
M  V30 END BOND
M  V30 END CTAB
M  END
>  <Molecule ChEMBL ID>
CHEMBL181554

>  <Smiles>
COc1ccc(C(=O)n2c(C)c(Cc3cccc(OC(C)(C)C(=O)O)c3)c3cc(OC(F)(F)F)ccc32)cc1

>  <IC50_nM>
3

>  <Assay Description>
In vitro inhibition of human Peroxisome proliferator activated receptor gamma

$$$$
CHEMBL518499
Actelion Java MolfileCreator 2.0

  0  0  0  0  0  0              0 V3000
M  V30 BEGIN CTAB
M  V30 COUNTS 33 36 0 0 0
M  V30 BEGIN ATOM
M  V30 1 Cl 4.3301 0.9999 0.0 0
M  V30 2 C 4.3301 0.0 0.0 0
M  V30 3 C 3.4641 -0.5 0.0 0
M  V30 4 C 5.1961 -0.5 0.0 0
M  V30 5 O 2.598 0.0 0.0 0
M  V30 6 C 3.4641 -1.5 0.0 0
M  V30 7 C 5.1961 -1.5 0.0 0
M  V30 8 C 1.732 -0.5 0.0 0 CFG=2
M  V30 9 C 4.3301 -2.0 0.0 0
M  V30 10 C 0.866 0.0 0.0 0
M  V30 11 C 1.732 -1.5 0.0 0
M  V30 12 C 4.3301 -3.0 0.0 0
M  V30 13 O 0.866 1.0 0.0 0
M  V30 14 O 0.0 -0.5 0.0 0
M  V30 15 N 5.1961 -3.5 0.0 0
M  V30 16 C 5.3006 -4.4945 0.0 0
M  V30 17 C 6.1096 -3.0932 0.0 0
M  V30 18 N 4.6315 -5.2376 0.0 0
M  V30 19 C 6.2788 -4.7024 0.0 0
M  V30 20 C 6.7788 -3.8364 0.0 0
M  V30 21 C 6.3176 -2.1151 0.0 0
M  V30 22 C 4.9405 -6.1887 0.0 0
M  V30 23 C 6.5878 -5.6534 0.0 0
M  V30 24 O 7.7733 -3.7318 0.0 0
M  V30 25 F 4.2714 -6.9318 0.0 0
M  V30 26 C 5.9187 -6.3966 0.0 0
M  V30 27 C 8.18 -2.8183 0.0 0
M  V30 28 C 9.1746 -2.7138 0.0 0
M  V30 29 C 7.5923 -2.0093 0.0 0
M  V30 30 C 9.5813 -1.8002 0.0 0
M  V30 31 C 7.999 -1.0957 0.0 0
M  V30 32 C 8.9935 -0.9912 0.0 0
M  V30 33 Cl 9.4002 -0.0776 0.0 0
M  V30 END ATOM
M  V30 BEGIN BOND
M  V30 1 1 1 2
M  V30 2 2 2 3
M  V30 3 1 2 4
M  V30 4 1 3 5
M  V30 5 1 3 6
M  V30 6 2 4 7
M  V30 7 1 5 8
M  V30 8 2 6 9
M  V30 9 1 8 10
M  V30 10 1 8 11 CFG=1
M  V30 11 1 9 12
M  V30 12 2 10 13
M  V30 13 1 10 14
M  V30 14 1 12 15
M  V30 15 1 15 16
M  V30 16 1 15 17
M  V30 17 2 16 18
M  V30 18 1 16 19
M  V30 19 2 17 20
M  V30 20 1 17 21
M  V30 21 1 18 22
M  V30 22 2 19 23
M  V30 23 1 20 24
M  V30 24 1 22 25
M  V30 25 2 22 26
M  V30 26 1 24 27
M  V30 27 2 27 28
M  V30 28 1 27 29
M  V30 29 1 28 30
M  V30 30 2 29 31
M  V30 31 2 30 32
M  V30 32 1 32 33
M  V30 33 1 7 9
M  V30 34 1 19 20
M  V30 35 1 23 26
M  V30 36 1 31 32
M  V30 END BOND
M  V30 BEGIN COLLECTION
M  V30 MDLV30/STEABS ATOMS=(1 8)
M  V30 END COLLECTION
M  V30 END CTAB
M  END
>  <Molecule ChEMBL ID>
CHEMBL518499

>  <Smiles>
Cc1c(Oc2ccc(Cl)cc2)c2ccc(F)nc2n1Cc1ccc(Cl)c(O[C@@H](C)C(=O)O)c1

>  <IC50_nM>
3

>  <Assay Description>
Displacement of [3H]2AD-5075 from GST-tagged human PPARgamma receptor expressed in Escherichia coli BL21

$$$$
CHEMBL485187
Actelion Java MolfileCreator 2.0

  0  0  0  0  0  0              0 V3000
M  V30 BEGIN CTAB
M  V30 COUNTS 38 42 0 0 0
M  V30 BEGIN ATOM
M  V30 1 S 5.3804 2.5036 0.0 0
M  V30 2 C 6.4951 1.5 0.0 0
M  V30 3 C 5.9905 3.874 0.0 0
M  V30 4 C 6.4951 0.0 0.0 0
M  V30 5 C 7.7942 2.25 0.0 0
M  V30 6 C 7.4823 3.7172 0.0 0
M  V30 7 C 7.7942 -0.7499 0.0 0
M  V30 8 C 5.1961 -0.75 0.0 0
M  V30 9 C 9.0932 1.4999 0.0 0
M  V30 10 C 9.0932 0.0 0.0 0
M  V30 11 C 5.1961 -2.25 0.0 0 CFG=2
M  V30 12 O 10.3923 2.2499 0.0 0
M  V30 13 O 3.8971 -3.0 0.0 0
M  V30 14 C 6.4951 -3.0 0.0 0
M  V30 15 C 10.3923 3.75 0.0 0
M  V30 16 C 3.8971 -4.5 0.0 0
M  V30 17 O 7.7942 -2.25 0.0 0
M  V30 18 O 6.4951 -4.5 0.0 0
M  V30 19 C 11.6913 4.5 0.0 0
M  V30 20 C 2.598 -5.25 0.0 0
M  V30 21 C 11.6913 6.0 0.0 0
M  V30 22 N 12.9048 6.8816 0.0 0
M  V30 23 C 10.4778 6.8816 0.0 0
M  V30 24 C 12.4413 8.3082 0.0 0
M  V30 25 O 10.9413 8.3082 0.0 0
M  V30 26 C 9.0512 6.4181 0.0 0
M  V30 27 C 13.323 9.5217 0.0 0
M  V30 28 C 14.8148 9.3649 0.0 0
M  V30 29 C 12.7129 10.8921 0.0 0
M  V30 30 C 15.6964 10.5785 0.0 0
M  V30 31 C 13.5945 12.1056 0.0 0
M  V30 32 C 15.0863 11.9488 0.0 0
M  V30 33 C 15.968 13.1623 0.0 0
M  V30 34 C 17.4598 13.0055 0.0 0
M  V30 35 C 15.3579 14.5326 0.0 0
M  V30 36 C 18.3415 14.219 0.0 0
M  V30 37 C 16.2396 15.7462 0.0 0
M  V30 38 C 17.7314 15.5894 0.0 0
M  V30 END ATOM
M  V30 BEGIN BOND
M  V30 1 1 1 2
M  V30 2 1 1 3
M  V30 3 2 2 4
M  V30 4 1 2 5
M  V30 5 2 3 6
M  V30 6 1 4 7
M  V30 7 1 4 8
M  V30 8 2 5 9
M  V30 9 2 7 10
M  V30 10 1 8 11
M  V30 11 1 9 12
M  V30 12 1 11 13 CFG=1
M  V30 13 1 11 14
M  V30 14 1 12 15
M  V30 15 1 13 16
M  V30 16 2 14 17
M  V30 17 1 14 18
M  V30 18 1 15 19
M  V30 19 1 16 20
M  V30 20 1 19 21
M  V30 21 1 21 22
M  V30 22 2 21 23
M  V30 23 2 22 24
M  V30 24 1 23 25
M  V30 25 1 23 26
M  V30 26 1 24 27
M  V30 27 2 27 28
M  V30 28 1 27 29
M  V30 29 1 28 30
M  V30 30 2 29 31
M  V30 31 2 30 32
M  V30 32 1 32 33
M  V30 33 2 33 34
M  V30 34 1 33 35
M  V30 35 1 34 36
M  V30 36 2 35 37
M  V30 37 2 36 38
M  V30 38 1 5 6
M  V30 39 1 9 10
M  V30 40 1 24 25
M  V30 41 1 31 32
M  V30 42 1 37 38
M  V30 END BOND
M  V30 BEGIN COLLECTION
M  V30 MDLV30/STEABS ATOMS=(1 11)
M  V30 END COLLECTION
M  V30 END CTAB
M  END
>  <Molecule ChEMBL ID>
CHEMBL485187

>  <Smiles>
CCO[C@@H](Cc1ccc(OCCc2nc(-c3ccc(-c4ccccc4)cc3)oc2C)c2ccsc12)C(=O)O

>  <IC50_nM>
3

>  <Assay Description>
Displacement of radio labeled 2(S)-(2-benzoyl-phenylamino)-3-{4-[1,1-ditritio-2-(5-methyl-2-phenyl-oxazol-4-yl)-ethoxy]-phenyl}-propionic acid from GST-fused human PPARgamma expressed in Escherichia coli BL21 cells by scintillation proximity assay

$$$$
CHEMBL3695850
Actelion Java MolfileCreator 2.0

  0  0  0  0  0  0              0 V3000
M  V30 BEGIN CTAB
M  V30 COUNTS 40 44 0 0 0
M  V30 BEGIN ATOM
M  V30 1 O 13.5913 -3.5669 0.0 0
M  V30 2 C 12.6131 -3.7748 0.0 0
M  V30 3 O 11.944 -3.0316 0.0 0
M  V30 4 C 12.3041 -4.7258 0.0 0
M  V30 5 C 11.326 -4.9337 0.0 0
M  V30 6 C 12.9732 -5.469 0.0 0
M  V30 7 C 10.6568 -4.1906 0.0 0
M  V30 8 C 11.017 -5.8848 0.0 0
M  V30 9 C 12.6642 -6.42 0.0 0
M  V30 10 C 10.9659 -3.2395 0.0 0
M  V30 11 C 9.6787 -4.3985 0.0 0
M  V30 12 C 11.6861 -6.6279 0.0 0
M  V30 13 C 10.2967 -2.4964 0.0 0
M  V30 14 C 9.0096 -3.6554 0.0 0
M  V30 15 C 9.3186 -2.7043 0.0 0
M  V30 16 C 8.6494 -1.9612 0.0 0
M  V30 17 N 7.6713 -2.1691 0.0 0
M  V30 18 C 6.9282 -1.4999 0.0 0
M  V30 19 C 7.2646 -3.0826 0.0 0
M  V30 20 C 6.0621 -2.0 0.0 0
M  V30 21 C 6.9282 -0.5 0.0 0
M  V30 22 C 6.27 -2.9781 0.0 0
M  V30 23 C 7.7646 -3.9487 0.0 0
M  V30 24 C 5.1961 -1.5 0.0 0
M  V30 25 C 6.0621 0.0 0.0 0
M  V30 26 C 5.6009 -3.7212 0.0 0
M  V30 27 C 5.1961 -0.5 0.0 0
M  V30 28 C 4.3301 0.0 0.0 0
M  V30 29 O 4.3301 1.0 0.0 0
M  V30 30 N 3.4641 -0.5 0.0 0
M  V30 31 C 2.598 0.0 0.0 0 CFG=2
M  V30 32 C 1.732 -0.5 0.0 0
M  V30 33 C 2.598 1.0 0.0 0
M  V30 34 C 0.866 0.0 0.0 0
M  V30 35 C 0.0 -0.5 0.0 0
M  V30 36 C -0.866 0.0 0.0 0
M  V30 37 C 0.0 -1.4999 0.0 0
M  V30 38 C -1.732 -0.4999 0.0 0
M  V30 39 C -0.866 -1.9999 0.0 0
M  V30 40 C -1.732 -1.4999 0.0 0
M  V30 END ATOM
M  V30 BEGIN BOND
M  V30 1 2 1 2
M  V30 2 1 2 3
M  V30 3 1 2 4
M  V30 4 2 4 5
M  V30 5 1 4 6
M  V30 6 1 5 7
M  V30 7 1 5 8
M  V30 8 2 6 9
M  V30 9 2 7 10
M  V30 10 1 7 11
M  V30 11 2 8 12
M  V30 12 1 10 13
M  V30 13 2 11 14
M  V30 14 2 13 15
M  V30 15 1 15 16
M  V30 16 1 16 17
M  V30 17 1 17 18
M  V30 18 1 17 19
M  V30 19 2 18 20
M  V30 20 1 18 21
M  V30 21 2 19 22
M  V30 22 1 19 23
M  V30 23 1 20 24
M  V30 24 2 21 25
M  V30 25 1 22 26
M  V30 26 2 24 27
M  V30 27 1 27 28
M  V30 28 2 28 29
M  V30 29 1 28 30
M  V30 30 1 30 31
M  V30 31 1 31 32
M  V30 32 1 31 33 CFG=3
M  V30 33 1 32 34
M  V30 34 1 34 35
M  V30 35 2 35 36
M  V30 36 1 35 37
M  V30 37 1 36 38
M  V30 38 2 37 39
M  V30 39 2 38 40
M  V30 40 1 9 12
M  V30 41 1 14 15
M  V30 42 1 20 22
M  V30 43 1 25 27
M  V30 44 1 39 40
M  V30 END BOND
M  V30 BEGIN COLLECTION
M  V30 MDLV30/STERAC1 ATOMS=(1 31)
M  V30 END COLLECTION
M  V30 END CTAB
M  END
>  <Molecule ChEMBL ID>
CHEMBL3695850

>  <Smiles>
Cc1c(C)n(Cc2ccc(-c3ccccc3C(=O)O)cc2)c2ccc(C(=O)NC(C)CCc3ccccc3)cc12

>  <IC50_nM>
3

>  <Assay Description>
Lanthascreen Competitive Binding Assay: The assay was performed according to manufacturer protocol. A mixture of nM GST-PPARG-LBD, 5 nM Tb-GST-antibody, 5 nM Fluormone Pan-PPAR Green, and serial dilutions of the experimental compound, beginning at 10 ׬M downwards, was added to wells of black 384-well low-volume plates (Greiner) to a total volume of 18 ׬L. All dilutions were made in TR-FRET assay buffer C. DMSO at 2% final concentration was used as a no-ligand control. Experiment was performed in triplicate, and incubated for 2 hours in the dark prior to assay read in Perkin Elmer ViewLux ultra HTS microplate reader. FRET signal was measured by excitation at 340 nm and emission at 520 nm for fluorescein and 490 nm for terbium. Fold change over DMSO was calculated using GraphPad Prism Software (La Jolla, Calif.) by calculating 520 nm/490 nm ratio. Graphs were plotted as fold change of FRET signal for compound treatment over DMSO-only control.

$$$$
CHEMBL3699396
Actelion Java MolfileCreator 2.0

  0  0  0  0  0  0              0 V3000
M  V30 BEGIN CTAB
M  V30 COUNTS 39 43 0 0 0
M  V30 BEGIN ATOM
M  V30 1 O 11.8592 -3.5669 0.0 0
M  V30 2 C 10.8811 -3.7748 0.0 0
M  V30 3 O 10.212 -3.0316 0.0 0
M  V30 4 C 10.5721 -4.7258 0.0 0
M  V30 5 C 9.5939 -4.9337 0.0 0
M  V30 6 C 11.2412 -5.469 0.0 0
M  V30 7 C 8.9248 -4.1906 0.0 0
M  V30 8 C 9.2849 -5.8848 0.0 0
M  V30 9 C 10.9322 -6.42 0.0 0
M  V30 10 C 9.2338 -3.2395 0.0 0
M  V30 11 C 7.9466 -4.3985 0.0 0
M  V30 12 C 9.954 -6.6279 0.0 0
M  V30 13 C 8.5647 -2.4964 0.0 0
M  V30 14 C 7.2775 -3.6554 0.0 0
M  V30 15 C 7.5865 -2.7043 0.0 0
M  V30 16 C 6.9174 -1.9612 0.0 0
M  V30 17 N 5.9392 -2.1691 0.0 0
M  V30 18 C 5.1961 -1.4999 0.0 0
M  V30 19 C 5.5325 -3.0826 0.0 0
M  V30 20 C 4.3301 -1.9999 0.0 0
M  V30 21 C 5.1961 -0.4999 0.0 0
M  V30 22 C 4.538 -2.9781 0.0 0
M  V30 23 C 6.0325 -3.9487 0.0 0
M  V30 24 C 3.4641 -1.5 0.0 0
M  V30 25 C 4.3301 0.0 0.0 0
M  V30 26 C 3.8689 -3.7212 0.0 0
M  V30 27 C 3.4641 -0.5 0.0 0
M  V30 28 C 2.598 0.0 0.0 0
M  V30 29 O 2.598 1.0 0.0 0
M  V30 30 N 1.732 -0.5 0.0 0
M  V30 31 C 0.866 0.0 0.0 0 CFG=2
M  V30 32 C 0.866 1.0 0.0 0
M  V30 33 C 0.0 -0.5 0.0 0
M  V30 34 C 0.0 1.4999 0.0 0
M  V30 35 C 1.732 1.5 0.0 0
M  V30 36 C 0.0 2.4999 0.0 0
M  V30 37 C -0.866 0.9999 0.0 0
M  V30 38 C 1.732 2.5 0.0 0
M  V30 39 C 0.866 3.0 0.0 0
M  V30 END ATOM
M  V30 BEGIN BOND
M  V30 1 2 1 2
M  V30 2 1 2 3
M  V30 3 1 2 4
M  V30 4 2 4 5
M  V30 5 1 4 6
M  V30 6 1 5 7
M  V30 7 1 5 8
M  V30 8 2 6 9
M  V30 9 2 7 10
M  V30 10 1 7 11
M  V30 11 2 8 12
M  V30 12 1 10 13
M  V30 13 2 11 14
M  V30 14 2 13 15
M  V30 15 1 15 16
M  V30 16 1 16 17
M  V30 17 1 17 18
M  V30 18 1 17 19
M  V30 19 2 18 20
M  V30 20 1 18 21
M  V30 21 2 19 22
M  V30 22 1 19 23
M  V30 23 1 20 24
M  V30 24 2 21 25
M  V30 25 1 22 26
M  V30 26 2 24 27
M  V30 27 1 27 28
M  V30 28 2 28 29
M  V30 29 1 28 30
M  V30 30 1 30 31
M  V30 31 1 31 32
M  V30 32 1 31 33 CFG=1
M  V30 33 2 32 34
M  V30 34 1 32 35
M  V30 35 1 34 36
M  V30 36 1 34 37
M  V30 37 2 35 38
M  V30 38 2 36 39
M  V30 39 1 9 12
M  V30 40 1 14 15
M  V30 41 1 20 22
M  V30 42 1 25 27
M  V30 43 1 38 39
M  V30 END BOND
M  V30 BEGIN COLLECTION
M  V30 MDLV30/STEABS ATOMS=(1 31)
M  V30 END COLLECTION
M  V30 END CTAB
M  END
>  <Molecule ChEMBL ID>
CHEMBL3699396

>  <Smiles>
Cc1ccccc1[C@H](C)NC(=O)c1ccc2c(c1)c(C)c(C)n2Cc1ccc(-c2ccccc2C(=O)O)cc1

>  <IC50_nM>
3

>  <Assay Description>
Lanthascreen Competitive Binding Assay: The assay was performed according to manufacturer protocol. A mixture of nM GST-PPARG-LBD, 5 nM Tb-GST-antibody, 5 nM Fluormone Pan-PPAR Green, and serial dilutions of the experimental compound, beginning at 10 ׬M downwards, was added to wells of black 384-well low-volume plates (Greiner) to a total volume of 18 ׬L. All dilutions were made in TR-FRET assay buffer C. DMSO at 2% final concentration was used as a no-ligand control. Experiment was performed in triplicate, and incubated for 2 hours in the dark prior to assay read in Perkin Elmer ViewLux ultra HTS microplate reader. FRET signal was measured by excitation at 340 nm and emission at 520 nm for fluorescein and 490 nm for terbium. Fold change over DMSO was calculated using GraphPad Prism Software (La Jolla, Calif.) by calculating 520 nm/490 nm ratio. Graphs were plotted as fold change of FRET signal for compound treatment over DMSO-only control.

$$$$
CHEMBL1230353
Actelion Java MolfileCreator 2.0

  0  0  0  0  0  0              0 V3000
M  V30 BEGIN CTAB
M  V30 COUNTS 39 43 0 0 0
M  V30 BEGIN ATOM
M  V30 1 O 11.1837 5.7369 0.0 0
M  V30 2 C 10.8747 4.7859 0.0 0
M  V30 3 O 9.8965 4.578 0.0 0
M  V30 4 C 11.5438 4.0427 0.0 0
M  V30 5 C 11.2348 3.0917 0.0 0
M  V30 6 C 12.522 4.2506 0.0 0
M  V30 7 C 10.2566 2.8838 0.0 0
M  V30 8 C 11.9039 2.3485 0.0 0
M  V30 9 C 13.1911 3.5075 0.0 0
M  V30 10 C 9.5875 3.6269 0.0 0
M  V30 11 C 9.9476 1.9327 0.0 0
M  V30 12 C 12.8821 2.5564 0.0 0
M  V30 13 C 8.6094 3.419 0.0 0
M  V30 14 C 8.9695 1.7248 0.0 0
M  V30 15 C 8.3003 2.4679 0.0 0
M  V30 16 C 7.3222 2.26 0.0 0
M  V30 17 N 7.0132 1.309 0.0 0
M  V30 18 C 6.0621 0.9999 0.0 0
M  V30 19 C 7.601 0.5 0.0 0
M  V30 20 C 6.0621 0.0 0.0 0
M  V30 21 C 5.1961 1.4999 0.0 0
M  V30 22 C 7.0132 -0.309 0.0 0
M  V30 23 C 8.601 0.5 0.0 0
M  V30 24 C 5.1961 -0.5 0.0 0
M  V30 25 C 4.3301 0.9999 0.0 0
M  V30 26 C 7.3222 -1.26 0.0 0
M  V30 27 C 4.3301 0.0 0.0 0
M  V30 28 C 3.4641 -0.5 0.0 0
M  V30 29 O 3.4641 -1.5 0.0 0
M  V30 30 N 2.598 0.0 0.0 0
M  V30 31 C 1.732 -0.5 0.0 0 CFG=2
M  V30 32 C 1.732 -1.5 0.0 0
M  V30 33 C 0.866 0.0 0.0 0
M  V30 34 C 0.866 -1.9999 0.0 0
M  V30 35 C 2.598 -2.0 0.0 0
M  V30 36 C 0.0 -0.5 0.0 0
M  V30 37 C 0.866 -2.9999 0.0 0
M  V30 38 C 2.598 -3.0 0.0 0
M  V30 39 C 1.732 -3.5 0.0 0
M  V30 END ATOM
M  V30 BEGIN BOND
M  V30 1 2 1 2
M  V30 2 1 2 3
M  V30 3 1 2 4
M  V30 4 2 4 5
M  V30 5 1 4 6
M  V30 6 1 5 7
M  V30 7 1 5 8
M  V30 8 2 6 9
M  V30 9 2 7 10
M  V30 10 1 7 11
M  V30 11 2 8 12
M  V30 12 1 10 13
M  V30 13 2 11 14
M  V30 14 2 13 15
M  V30 15 1 15 16
M  V30 16 1 16 17
M  V30 17 1 17 18
M  V30 18 1 17 19
M  V30 19 2 18 20
M  V30 20 1 18 21
M  V30 21 2 19 22
M  V30 22 1 19 23
M  V30 23 1 20 24
M  V30 24 2 21 25
M  V30 25 1 22 26
M  V30 26 2 24 27
M  V30 27 1 27 28
M  V30 28 2 28 29
M  V30 29 1 28 30
M  V30 30 1 31 30 CFG=3
M  V30 31 1 31 32
M  V30 32 1 31 33
M  V30 33 2 32 34
M  V30 34 1 32 35
M  V30 35 1 33 36
M  V30 36 1 34 37
M  V30 37 2 35 38
M  V30 38 2 37 39
M  V30 39 1 9 12
M  V30 40 1 14 15
M  V30 41 1 20 22
M  V30 42 1 25 27
M  V30 43 1 38 39
M  V30 END BOND
M  V30 BEGIN COLLECTION
M  V30 MDLV30/STEABS ATOMS=(1 31)
M  V30 END COLLECTION
M  V30 END CTAB
M  END
>  <Molecule ChEMBL ID>
CHEMBL1230353

>  <Smiles>
CC[C@H](NC(=O)c1ccc2c(c1)c(C)c(C)n2Cc1ccc(-c2ccccc2C(=O)O)cc1)c1ccccc1

>  <IC50_nM>
3

>  <Assay Description>
Binding affinity to GST-tagged PPAR-gamma-LBD (unknown origin) after 2 hrs by Lantha screen assay using fluormone Pan-PPAR green probe

$$$$
CHEMBL179542
Actelion Java MolfileCreator 2.0

  0  0  0  0  0  0              0 V3000
M  V30 BEGIN CTAB
M  V30 COUNTS 39 42 0 0 0
M  V30 BEGIN ATOM
M  V30 1 F 7.7798 -2.429 0.0 0
M  V30 2 C 7.0367 -1.7599 0.0 0
M  V30 3 F 6.3676 -2.503 0.0 0
M  V30 4 F 6.2936 -1.0907 0.0 0
M  V30 5 O 7.7058 -1.0167 0.0 0
M  V30 6 C 7.3968 -0.0657 0.0 0
M  V30 7 C 6.4187 0.1422 0.0 0
M  V30 8 C 8.0659 0.6774 0.0 0
M  V30 9 C 6.1096 1.0932 0.0 0
M  V30 10 C 7.7569 1.6284 0.0 0
M  V30 11 C 6.7788 1.8364 0.0 0
M  V30 12 C 5.1961 1.4999 0.0 0
M  V30 13 N 6.2788 2.7024 0.0 0
M  V30 14 C 5.3006 2.4945 0.0 0
M  V30 15 C 4.3301 0.9999 0.0 0
M  V30 16 C 6.6855 3.6159 0.0 0
M  V30 17 C 4.5575 3.1636 0.0 0
M  V30 18 C 4.3301 0.0 0.0 0
M  V30 19 O 7.68 3.7205 0.0 0
M  V30 20 C 6.0977 4.4249 0.0 0
M  V30 21 C 3.4641 -0.5 0.0 0
M  V30 22 C 5.1961 -0.5 0.0 0
M  V30 23 C 6.5045 5.3385 0.0 0
M  V30 24 C 5.1032 4.3204 0.0 0
M  V30 25 O 2.598 0.0 0.0 0
M  V30 26 C 3.4641 -1.5 0.0 0
M  V30 27 C 5.1961 -1.5 0.0 0
M  V30 28 C 5.9167 6.1475 0.0 0
M  V30 29 C 4.5154 5.1294 0.0 0
M  V30 30 C 1.732 -0.5 0.0 0 CFG=2
M  V30 31 C 4.3301 -2.0 0.0 0
M  V30 32 C 4.9222 6.043 0.0 0
M  V30 33 C 1.732 -1.5 0.0 0
M  V30 34 C 0.866 0.0 0.0 0
M  V30 35 O 4.3344 6.852 0.0 0
M  V30 36 O 0.866 -2.0 0.0 0
M  V30 37 O 2.598 -1.9999 0.0 0
M  V30 38 C 0.0 -0.5 0.0 0
M  V30 39 C 3.3399 6.7475 0.0 0
M  V30 END ATOM
M  V30 BEGIN BOND
M  V30 1 1 1 2
M  V30 2 1 2 3
M  V30 3 1 2 4
M  V30 4 1 2 5
M  V30 5 1 5 6
M  V30 6 2 6 7
M  V30 7 1 6 8
M  V30 8 1 7 9
M  V30 9 2 8 10
M  V30 10 2 9 11
M  V30 11 1 9 12
M  V30 12 1 11 13
M  V30 13 2 12 14
M  V30 14 1 12 15
M  V30 15 1 13 16
M  V30 16 1 14 17
M  V30 17 1 15 18
M  V30 18 2 16 19
M  V30 19 1 16 20
M  V30 20 2 18 21
M  V30 21 1 18 22
M  V30 22 2 20 23
M  V30 23 1 20 24
M  V30 24 1 21 25
M  V30 25 1 21 26
M  V30 26 2 22 27
M  V30 27 1 23 28
M  V30 28 2 24 29
M  V30 29 1 30 25 CFG=3
M  V30 30 2 26 31
M  V30 31 2 28 32
M  V30 32 1 30 33
M  V30 33 1 30 34
M  V30 34 1 32 35
M  V30 35 2 33 36
M  V30 36 1 33 37
M  V30 37 1 34 38
M  V30 38 1 35 39
M  V30 39 1 10 11
M  V30 40 1 13 14
M  V30 41 1 27 31
M  V30 42 1 29 32
M  V30 END BOND
M  V30 BEGIN COLLECTION
M  V30 MDLV30/STERAC1 ATOMS=(1 30)
M  V30 END COLLECTION
M  V30 END CTAB
M  END
>  <Molecule ChEMBL ID>
CHEMBL179542

>  <Smiles>
CCC(Oc1ccccc1Cc1c(C)n(C(=O)c2ccc(OC)cc2)c2ccc(OC(F)(F)F)cc12)C(=O)O

>  <IC50_nM>
3

>  <Assay Description>
In vitro inhibition of human Peroxisome proliferator activated receptor gamma

$$$$
CHEMBL3735987
Actelion Java MolfileCreator 2.0

  0  0  0  0  0  0              0 V3000
M  V30 BEGIN CTAB
M  V30 COUNTS 39 43 0 0 0
M  V30 BEGIN ATOM
M  V30 1 Cl 6.0621 0.0 0.0 0
M  V30 2 C 5.1961 -0.5 0.0 0
M  V30 3 C 4.3301 0.0 0.0 0
M  V30 4 C 5.1961 -1.4999 0.0 0
M  V30 5 C 3.4641 -0.5 0.0 0
M  V30 6 C 4.3301 -1.9999 0.0 0
M  V30 7 C 3.4641 -1.4999 0.0 0
M  V30 8 C 2.598 0.0 0.0 0 CFG=1
M  V30 9 N 1.732 -0.5 0.0 0
M  V30 10 C 2.598 1.0 0.0 0
M  V30 11 C 0.866 0.0 0.0 0
M  V30 12 O 0.866 1.0 0.0 0
M  V30 13 C 0.0 -0.5 0.0 0
M  V30 14 C 0.0 -1.4999 0.0 0
M  V30 15 C -0.866 0.0 0.0 0
M  V30 16 C -0.866 -1.9999 0.0 0
M  V30 17 C -1.732 -0.4999 0.0 0
M  V30 18 C -1.732 -1.4999 0.0 0
M  V30 19 C -1.0739 -2.9781 0.0 0
M  V30 20 N -2.4751 -2.1691 0.0 0
M  V30 21 C -2.0684 -3.0826 0.0 0
M  V30 22 C -0.4048 -3.7212 0.0 0
M  V30 23 C -3.4533 -1.9612 0.0 0
M  V30 24 C -2.5684 -3.9487 0.0 0
M  V30 25 C -4.1224 -2.7043 0.0 0
M  V30 26 C -5.1006 -2.4964 0.0 0
M  V30 27 C -3.8134 -3.6554 0.0 0
M  V30 28 C -5.7697 -3.2395 0.0 0
M  V30 29 C -4.4825 -4.3985 0.0 0
M  V30 30 C -5.4607 -4.1906 0.0 0
M  V30 31 C -6.1298 -4.9337 0.0 0
M  V30 32 C -7.108 -4.7258 0.0 0
M  V30 33 C -5.8208 -5.8848 0.0 0
M  V30 34 C -7.417 -3.7748 0.0 0
M  V30 35 C -7.7771 -5.469 0.0 0
M  V30 36 C -6.4899 -6.6279 0.0 0
M  V30 37 O -6.7478 -3.0316 0.0 0
M  V30 38 O -8.3951 -3.5669 0.0 0
M  V30 39 C -7.4681 -6.42 0.0 0
M  V30 END ATOM
M  V30 BEGIN BOND
M  V30 1 1 1 2
M  V30 2 2 2 3
M  V30 3 1 2 4
M  V30 4 1 3 5
M  V30 5 2 4 6
M  V30 6 2 5 7
M  V30 7 1 5 8
M  V30 8 1 8 9
M  V30 9 1 8 10 CFG=1
M  V30 10 1 9 11
M  V30 11 2 11 12
M  V30 12 1 11 13
M  V30 13 2 13 14
M  V30 14 1 13 15
M  V30 15 1 14 16
M  V30 16 2 15 17
M  V30 17 2 16 18
M  V30 18 1 16 19
M  V30 19 1 18 20
M  V30 20 2 19 21
M  V30 21 1 19 22
M  V30 22 1 20 23
M  V30 23 1 21 24
M  V30 24 1 23 25
M  V30 25 2 25 26
M  V30 26 1 25 27
M  V30 27 1 26 28
M  V30 28 2 27 29
M  V30 29 2 28 30
M  V30 30 1 30 31
M  V30 31 2 31 32
M  V30 32 1 31 33
M  V30 33 1 32 34
M  V30 34 1 32 35
M  V30 35 2 33 36
M  V30 36 2 34 37
M  V30 37 1 34 38
M  V30 38 2 35 39
M  V30 39 1 6 7
M  V30 40 1 17 18
M  V30 41 1 20 21
M  V30 42 1 29 30
M  V30 43 1 36 39
M  V30 END BOND
M  V30 BEGIN COLLECTION
M  V30 MDLV30/STEABS ATOMS=(1 8)
M  V30 END COLLECTION
M  V30 END CTAB
M  END
>  <Molecule ChEMBL ID>
CHEMBL3735987

>  <Smiles>
Cc1c(C)n(Cc2ccc(-c3ccccc3C(=O)O)cc2)c2ccc(C(=O)N[C@@H](C)c3cccc(Cl)c3)cc12

>  <IC50_nM>
3

>  <Assay Description>
Binding affinity to GST-tagged PPAR-gamma-LBD (unknown origin) after 2 hrs by Lantha screen assay using fluormone Pan-PPAR green probe

$$$$
CHEMBL3678106
Actelion Java MolfileCreator 2.0

  0  0  0  0  0  0              0 V3000
M  V30 BEGIN CTAB
M  V30 COUNTS 29 32 0 0 0
M  V30 BEGIN ATOM
M  V30 1 Cl 11.2348 3.0917 0.0 0
M  V30 2 C 10.2566 2.8838 0.0 0
M  V30 3 N 9.5875 3.6269 0.0 0
M  V30 4 C 9.9476 1.9327 0.0 0
M  V30 5 C 8.6094 3.419 0.0 0
M  V30 6 C 8.9695 1.7248 0.0 0
M  V30 7 C 8.3003 2.4679 0.0 0
M  V30 8 C 7.3222 2.26 0.0 0
M  V30 9 N 7.0132 1.309 0.0 0
M  V30 10 C 6.0621 0.9999 0.0 0
M  V30 11 C 7.601 0.5 0.0 0
M  V30 12 C 6.0621 0.0 0.0 0
M  V30 13 C 5.1961 1.4999 0.0 0
M  V30 14 C 7.0132 -0.309 0.0 0
M  V30 15 C 5.1961 -0.5 0.0 0
M  V30 16 C 4.3301 0.9999 0.0 0
M  V30 17 C 4.3301 0.0 0.0 0
M  V30 18 C 3.4641 -0.5 0.0 0
M  V30 19 O 3.4641 -1.5 0.0 0
M  V30 20 N 2.598 0.0 0.0 0
M  V30 21 C 1.732 -0.5 0.0 0 CFG=2
M  V30 22 C 1.732 -1.5 0.0 0
M  V30 23 C 0.866 0.0 0.0 0
M  V30 24 C 0.866 -1.9999 0.0 0
M  V30 25 C 2.598 -2.0 0.0 0
M  V30 26 C 0.0 -0.5 0.0 0
M  V30 27 C 0.866 -2.9999 0.0 0
M  V30 28 C 2.598 -3.0 0.0 0
M  V30 29 C 1.732 -3.5 0.0 0
M  V30 END ATOM
M  V30 BEGIN BOND
M  V30 1 1 1 2
M  V30 2 2 2 3
M  V30 3 1 2 4
M  V30 4 1 3 5
M  V30 5 2 4 6
M  V30 6 2 5 7
M  V30 7 1 7 8
M  V30 8 1 8 9
M  V30 9 1 9 10
M  V30 10 1 9 11
M  V30 11 2 10 12
M  V30 12 1 10 13
M  V30 13 2 11 14
M  V30 14 1 12 15
M  V30 15 2 13 16
M  V30 16 2 15 17
M  V30 17 1 17 18
M  V30 18 2 18 19
M  V30 19 1 18 20
M  V30 20 1 21 20 CFG=3
M  V30 21 1 21 22
M  V30 22 1 21 23
M  V30 23 2 22 24
M  V30 24 1 22 25
M  V30 25 1 23 26
M  V30 26 1 24 27
M  V30 27 2 25 28
M  V30 28 2 27 29
M  V30 29 1 6 7
M  V30 30 1 12 14
M  V30 31 1 16 17
M  V30 32 1 28 29
M  V30 END BOND
M  V30 BEGIN COLLECTION
M  V30 MDLV30/STERAC1 ATOMS=(1 21)
M  V30 END COLLECTION
M  V30 END CTAB
M  END
>  <Molecule ChEMBL ID>
CHEMBL3678106

>  <Smiles>
CCC(NC(=O)c1ccc2c(ccn2Cc2ccc(Cl)nc2)c1)c1ccccc1

>  <IC50_nM>
3

>  <Assay Description>
Lanthascreen Competitive Binding Assay: The assay was performed according to manufacturer protocol. A mixture of 5 nM GST-PPARG-LBD, 5 nM Tb-GST-antibody, 5 nM Fluormone Pan- PPAR Green, and serial dilutions of the experimental compound, beginning at 10 ׬� downwards, was added to wells of black 384-well low- volume plates (Greiner) to a total volume of 18 xL. All dilutions were made in TR-FRET assay buffer C. DMSO at 2% final concentration was used as a no-ligand control. Experiment was performed in triplicate, and incubated for 2 hours in the dark prior to assay read in Perkin Elmer ViewLux ultra HTS microplate reader. FRET signal was measured by excitation at 340 nm and emission at 520 nm for fluorescein and 490 nm for terbium.

$$$$
CHEMBL3695895
Actelion Java MolfileCreator 2.0

  0  0  0  0  0  0              0 V3000
M  V30 BEGIN CTAB
M  V30 COUNTS 36 40 0 0 0
M  V30 BEGIN ATOM
M  V30 1 Cl 6.0621 0.0 0.0 0
M  V30 2 C 5.1961 -0.5 0.0 0
M  V30 3 C 4.3301 0.0 0.0 0
M  V30 4 C 5.1961 -1.4999 0.0 0
M  V30 5 C 3.4641 -0.5 0.0 0
M  V30 6 C 4.3301 -1.9999 0.0 0
M  V30 7 C 3.4641 -1.4999 0.0 0
M  V30 8 C 2.598 0.0 0.0 0 CFG=1
M  V30 9 N 1.732 -0.5 0.0 0
M  V30 10 C 2.598 1.0 0.0 0
M  V30 11 C 0.866 0.0 0.0 0
M  V30 12 O 0.866 1.0 0.0 0
M  V30 13 C 0.0 -0.5 0.0 0
M  V30 14 C 0.0 -1.4999 0.0 0
M  V30 15 C -0.866 0.0 0.0 0
M  V30 16 C -0.866 -1.9999 0.0 0
M  V30 17 C -1.732 -0.4999 0.0 0
M  V30 18 C -1.732 -1.4999 0.0 0
M  V30 19 C -1.0739 -2.9781 0.0 0
M  V30 20 N -2.4751 -2.1691 0.0 0
M  V30 21 C -2.0684 -3.0826 0.0 0
M  V30 22 C -0.4048 -3.7212 0.0 0
M  V30 23 C -3.4533 -1.9612 0.0 0
M  V30 24 C -2.5684 -3.9487 0.0 0
M  V30 25 C -4.1224 -2.7043 0.0 0
M  V30 26 C -5.1006 -2.4964 0.0 0
M  V30 27 C -3.8134 -3.6554 0.0 0
M  V30 28 C -5.7697 -3.2395 0.0 0
M  V30 29 C -4.4825 -4.3985 0.0 0
M  V30 30 C -5.4607 -4.1906 0.0 0
M  V30 31 C -6.1298 -4.9337 0.0 0
M  V30 32 C -7.108 -4.7258 0.0 0
M  V30 33 C -5.8208 -5.8848 0.0 0
M  V30 34 C -7.7771 -5.469 0.0 0
M  V30 35 C -6.4899 -6.6279 0.0 0
M  V30 36 C -7.4681 -6.42 0.0 0
M  V30 END ATOM
M  V30 BEGIN BOND
M  V30 1 1 1 2
M  V30 2 2 2 3
M  V30 3 1 2 4
M  V30 4 1 3 5
M  V30 5 2 4 6
M  V30 6 2 5 7
M  V30 7 1 5 8
M  V30 8 1 8 9
M  V30 9 1 8 10 CFG=1
M  V30 10 1 9 11
M  V30 11 2 11 12
M  V30 12 1 11 13
M  V30 13 2 13 14
M  V30 14 1 13 15
M  V30 15 1 14 16
M  V30 16 2 15 17
M  V30 17 2 16 18
M  V30 18 1 16 19
M  V30 19 1 18 20
M  V30 20 2 19 21
M  V30 21 1 19 22
M  V30 22 1 20 23
M  V30 23 1 21 24
M  V30 24 1 23 25
M  V30 25 2 25 26
M  V30 26 1 25 27
M  V30 27 1 26 28
M  V30 28 2 27 29
M  V30 29 2 28 30
M  V30 30 1 30 31
M  V30 31 2 31 32
M  V30 32 1 31 33
M  V30 33 1 32 34
M  V30 34 2 33 35
M  V30 35 2 34 36
M  V30 36 1 6 7
M  V30 37 1 17 18
M  V30 38 1 20 21
M  V30 39 1 29 30
M  V30 40 1 35 36
M  V30 END BOND
M  V30 BEGIN COLLECTION
M  V30 MDLV30/STEABS ATOMS=(1 8)
M  V30 END COLLECTION
M  V30 END CTAB
M  END
>  <Molecule ChEMBL ID>
CHEMBL3695895

>  <Smiles>
Cc1c(C)n(Cc2ccc(-c3ccccc3)cc2)c2ccc(C(=O)N[C@@H](C)c3cccc(Cl)c3)cc12

>  <IC50_nM>
3

>  <Assay Description>
Lanthascreen Competitive Binding Assay: The assay was performed according to manufacturer protocol. A mixture of nM GST-PPARG-LBD, 5 nM Tb-GST-antibody, 5 nM Fluormone Pan-PPAR Green, and serial dilutions of the experimental compound, beginning at 10 ׬M downwards, was added to wells of black 384-well low-volume plates (Greiner) to a total volume of 18 ׬L. All dilutions were made in TR-FRET assay buffer C. DMSO at 2% final concentration was used as a no-ligand control. Experiment was performed in triplicate, and incubated for 2 hours in the dark prior to assay read in Perkin Elmer ViewLux ultra HTS microplate reader. FRET signal was measured by excitation at 340 nm and emission at 520 nm for fluorescein and 490 nm for terbium. Fold change over DMSO was calculated using GraphPad Prism Software (La Jolla, Calif.) by calculating 520 nm/490 nm ratio. Graphs were plotted as fold change of FRET signal for compound treatment over DMSO-only control.

$$$$
CHEMBL3699429
Actelion Java MolfileCreator 2.0

  0  0  0  0  0  0              0 V3000
M  V30 BEGIN CTAB
M  V30 COUNTS 43 47 0 0 0
M  V30 BEGIN ATOM
M  V30 1 Cl 4.3301 0.9999 0.0 0
M  V30 2 C 4.3301 0.0 0.0 0
M  V30 3 C 3.4641 -0.5 0.0 0
M  V30 4 C 5.1961 -0.5 0.0 0
M  V30 5 C 3.4641 -1.5 0.0 0
M  V30 6 C 2.598 0.0 0.0 0 CFG=1
M  V30 7 C 5.1961 -1.5 0.0 0
M  V30 8 C 4.3301 -2.0 0.0 0
M  V30 9 N 1.732 -0.5 0.0 0
M  V30 10 C 2.598 1.0 0.0 0
M  V30 11 C 4.3301 -3.0 0.0 0
M  V30 12 C 0.866 0.0 0.0 0
M  V30 13 F 5.3301 -3.0 0.0 0
M  V30 14 F 4.3301 -4.0 0.0 0
M  V30 15 F 3.3301 -3.0 0.0 0
M  V30 16 O 0.866 1.0 0.0 0
M  V30 17 C 0.0 -0.5 0.0 0
M  V30 18 C 0.0 -1.4999 0.0 0
M  V30 19 C -0.866 0.0 0.0 0
M  V30 20 C -0.866 -1.9999 0.0 0
M  V30 21 C -1.732 -0.4999 0.0 0
M  V30 22 C -1.732 -1.4999 0.0 0
M  V30 23 C -1.0739 -2.9781 0.0 0
M  V30 24 N -2.4751 -2.1691 0.0 0
M  V30 25 C -2.0684 -3.0826 0.0 0
M  V30 26 C -0.4048 -3.7212 0.0 0
M  V30 27 C -3.4533 -1.9612 0.0 0
M  V30 28 C -2.5684 -3.9487 0.0 0
M  V30 29 C -4.1224 -2.7043 0.0 0
M  V30 30 C -5.1006 -2.4964 0.0 0
M  V30 31 C -3.8134 -3.6554 0.0 0
M  V30 32 C -5.7697 -3.2395 0.0 0
M  V30 33 C -4.4825 -4.3985 0.0 0
M  V30 34 C -5.4607 -4.1906 0.0 0
M  V30 35 C -6.1298 -4.9337 0.0 0
M  V30 36 C -7.108 -4.7258 0.0 0
M  V30 37 C -5.8208 -5.8848 0.0 0
M  V30 38 C -7.417 -3.7748 0.0 0
M  V30 39 C -7.7771 -5.469 0.0 0
M  V30 40 C -6.4899 -6.6279 0.0 0
M  V30 41 O -6.7478 -3.0316 0.0 0
M  V30 42 O -8.3951 -3.5669 0.0 0
M  V30 43 C -7.4681 -6.42 0.0 0
M  V30 END ATOM
M  V30 BEGIN BOND
M  V30 1 1 1 2
M  V30 2 2 2 3
M  V30 3 1 2 4
M  V30 4 1 3 5
M  V30 5 1 3 6
M  V30 6 2 4 7
M  V30 7 2 5 8
M  V30 8 1 6 9
M  V30 9 1 6 10 CFG=1
M  V30 10 1 8 11
M  V30 11 1 9 12
M  V30 12 1 11 13
M  V30 13 1 11 14
M  V30 14 1 11 15
M  V30 15 2 12 16
M  V30 16 1 12 17
M  V30 17 2 17 18
M  V30 18 1 17 19
M  V30 19 1 18 20
M  V30 20 2 19 21
M  V30 21 2 20 22
M  V30 22 1 20 23
M  V30 23 1 22 24
M  V30 24 2 23 25
M  V30 25 1 23 26
M  V30 26 1 24 27
M  V30 27 1 25 28
M  V30 28 1 27 29
M  V30 29 2 29 30
M  V30 30 1 29 31
M  V30 31 1 30 32
M  V30 32 2 31 33
M  V30 33 2 32 34
M  V30 34 1 34 35
M  V30 35 2 35 36
M  V30 36 1 35 37
M  V30 37 1 36 38
M  V30 38 1 36 39
M  V30 39 2 37 40
M  V30 40 2 38 41
M  V30 41 1 38 42
M  V30 42 2 39 43
M  V30 43 1 7 8
M  V30 44 1 21 22
M  V30 45 1 24 25
M  V30 46 1 33 34
M  V30 47 1 40 43
M  V30 END BOND
M  V30 BEGIN COLLECTION
M  V30 MDLV30/STEABS ATOMS=(1 6)
M  V30 END COLLECTION
M  V30 END CTAB
M  END
>  <Molecule ChEMBL ID>
CHEMBL3699429

>  <Smiles>
Cc1c(C)n(Cc2ccc(-c3ccccc3C(=O)O)cc2)c2ccc(C(=O)N[C@@H](C)c3cc(C(F)(F)F)ccc3Cl)cc12

>  <IC50_nM>
3

>  <Assay Description>
Lanthascreen Competitive Binding Assay: The assay was performed according to manufacturer protocol. A mixture of nM GST-PPARG-LBD, 5 nM Tb-GST-antibody, 5 nM Fluormone Pan-PPAR Green, and serial dilutions of the experimental compound, beginning at 10 ׬M downwards, was added to wells of black 384-well low-volume plates (Greiner) to a total volume of 18 ׬L. All dilutions were made in TR-FRET assay buffer C. DMSO at 2% final concentration was used as a no-ligand control. Experiment was performed in triplicate, and incubated for 2 hours in the dark prior to assay read in Perkin Elmer ViewLux ultra HTS microplate reader. FRET signal was measured by excitation at 340 nm and emission at 520 nm for fluorescein and 490 nm for terbium. Fold change over DMSO was calculated using GraphPad Prism Software (La Jolla, Calif.) by calculating 520 nm/490 nm ratio. Graphs were plotted as fold change of FRET signal for compound treatment over DMSO-only control.

$$$$
CHEMBL1230353
Actelion Java MolfileCreator 2.0

  0  0  0  0  0  0              0 V3000
M  V30 BEGIN CTAB
M  V30 COUNTS 39 43 0 0 0
M  V30 BEGIN ATOM
M  V30 1 O 11.1837 5.7369 0.0 0
M  V30 2 C 10.8747 4.7859 0.0 0
M  V30 3 O 9.8965 4.578 0.0 0
M  V30 4 C 11.5438 4.0427 0.0 0
M  V30 5 C 11.2348 3.0917 0.0 0
M  V30 6 C 12.522 4.2506 0.0 0
M  V30 7 C 10.2566 2.8838 0.0 0
M  V30 8 C 11.9039 2.3485 0.0 0
M  V30 9 C 13.1911 3.5075 0.0 0
M  V30 10 C 9.5875 3.6269 0.0 0
M  V30 11 C 9.9476 1.9327 0.0 0
M  V30 12 C 12.8821 2.5564 0.0 0
M  V30 13 C 8.6094 3.419 0.0 0
M  V30 14 C 8.9695 1.7248 0.0 0
M  V30 15 C 8.3003 2.4679 0.0 0
M  V30 16 C 7.3222 2.26 0.0 0
M  V30 17 N 7.0132 1.309 0.0 0
M  V30 18 C 6.0621 0.9999 0.0 0
M  V30 19 C 7.601 0.5 0.0 0
M  V30 20 C 6.0621 0.0 0.0 0
M  V30 21 C 5.1961 1.4999 0.0 0
M  V30 22 C 7.0132 -0.309 0.0 0
M  V30 23 C 8.601 0.5 0.0 0
M  V30 24 C 5.1961 -0.5 0.0 0
M  V30 25 C 4.3301 0.9999 0.0 0
M  V30 26 C 7.3222 -1.26 0.0 0
M  V30 27 C 4.3301 0.0 0.0 0
M  V30 28 C 3.4641 -0.5 0.0 0
M  V30 29 O 3.4641 -1.5 0.0 0
M  V30 30 N 2.598 0.0 0.0 0
M  V30 31 C 1.732 -0.5 0.0 0 CFG=2
M  V30 32 C 1.732 -1.5 0.0 0
M  V30 33 C 0.866 0.0 0.0 0
M  V30 34 C 0.866 -1.9999 0.0 0
M  V30 35 C 2.598 -2.0 0.0 0
M  V30 36 C 0.0 -0.5 0.0 0
M  V30 37 C 0.866 -2.9999 0.0 0
M  V30 38 C 2.598 -3.0 0.0 0
M  V30 39 C 1.732 -3.5 0.0 0
M  V30 END ATOM
M  V30 BEGIN BOND
M  V30 1 2 1 2
M  V30 2 1 2 3
M  V30 3 1 2 4
M  V30 4 2 4 5
M  V30 5 1 4 6
M  V30 6 1 5 7
M  V30 7 1 5 8
M  V30 8 2 6 9
M  V30 9 2 7 10
M  V30 10 1 7 11
M  V30 11 2 8 12
M  V30 12 1 10 13
M  V30 13 2 11 14
M  V30 14 2 13 15
M  V30 15 1 15 16
M  V30 16 1 16 17
M  V30 17 1 17 18
M  V30 18 1 17 19
M  V30 19 2 18 20
M  V30 20 1 18 21
M  V30 21 2 19 22
M  V30 22 1 19 23
M  V30 23 1 20 24
M  V30 24 2 21 25
M  V30 25 1 22 26
M  V30 26 2 24 27
M  V30 27 1 27 28
M  V30 28 2 28 29
M  V30 29 1 28 30
M  V30 30 1 31 30 CFG=3
M  V30 31 1 31 32
M  V30 32 1 31 33
M  V30 33 2 32 34
M  V30 34 1 32 35
M  V30 35 1 33 36
M  V30 36 1 34 37
M  V30 37 2 35 38
M  V30 38 2 37 39
M  V30 39 1 9 12
M  V30 40 1 14 15
M  V30 41 1 20 22
M  V30 42 1 25 27
M  V30 43 1 38 39
M  V30 END BOND
M  V30 BEGIN COLLECTION
M  V30 MDLV30/STEABS ATOMS=(1 31)
M  V30 END COLLECTION
M  V30 END CTAB
M  END
>  <Molecule ChEMBL ID>
CHEMBL1230353

>  <Smiles>
CC[C@H](NC(=O)c1ccc2c(c1)c(C)c(C)n2Cc1ccc(-c2ccccc2C(=O)O)cc1)c1ccccc1

>  <IC50_nM>
3

>  <Assay Description>
Lanthascreen Competitive Binding Assay: The assay was performed according to manufacturer protocol. A mixture of nM GST-PPARG-LBD, 5 nM Tb-GST-antibody, 5 nM Fluormone Pan-PPAR Green, and serial dilutions of the experimental compound, beginning at 10 ׬M downwards, was added to wells of black 384-well low-volume plates (Greiner) to a total volume of 18 ׬L. All dilutions were made in TR-FRET assay buffer C. DMSO at 2% final concentration was used as a no-ligand control. Experiment was performed in triplicate, and incubated for 2 hours in the dark prior to assay read in Perkin Elmer ViewLux ultra HTS microplate reader. FRET signal was measured by excitation at 340 nm and emission at 520 nm for fluorescein and 490 nm for terbium. Fold change over DMSO was calculated using GraphPad Prism Software (La Jolla, Calif.) by calculating 520 nm/490 nm ratio. Graphs were plotted as fold change of FRET signal for compound treatment over DMSO-only control.

$$$$
CHEMBL484607
Actelion Java MolfileCreator 2.0

  0  0  0  0  0  0              0 V3000
M  V30 BEGIN CTAB
M  V30 COUNTS 35 38 0 0 0
M  V30 BEGIN ATOM
M  V30 1 S 3.5869 1.6691 0.0 0
M  V30 2 C 4.3301 1.0 0.0 0
M  V30 3 C 3.9937 2.5826 0.0 0
M  V30 4 C 4.3301 0.0 0.0 0
M  V30 5 C 5.1961 1.4999 0.0 0
M  V30 6 C 4.9882 2.4781 0.0 0
M  V30 7 C 5.1961 -0.4999 0.0 0
M  V30 8 C 3.4641 -0.5 0.0 0
M  V30 9 C 6.0621 0.9999 0.0 0
M  V30 10 C 6.0621 0.0 0.0 0
M  V30 11 C 3.4641 -1.5 0.0 0 CFG=2
M  V30 12 O 6.9282 1.4999 0.0 0
M  V30 13 O 2.598 -1.9999 0.0 0
M  V30 14 C 4.3301 -2.0 0.0 0
M  V30 15 C 6.9282 2.5 0.0 0
M  V30 16 C 2.598 -2.9999 0.0 0
M  V30 17 O 5.1961 -1.4999 0.0 0
M  V30 18 O 4.3301 -2.9999 0.0 0
M  V30 19 C 7.7942 3.0 0.0 0
M  V30 20 C 1.732 -3.5 0.0 0
M  V30 21 C 7.7942 4.0 0.0 0
M  V30 22 F 1.232 -2.6339 0.0 0
M  V30 23 F 0.866 -4.0 0.0 0
M  V30 24 F 2.232 -4.366 0.0 0
M  V30 25 N 8.6032 4.5877 0.0 0
M  V30 26 C 6.9852 4.5877 0.0 0
M  V30 27 C 8.2942 5.5388 0.0 0
M  V30 28 O 7.2942 5.5388 0.0 0
M  V30 29 C 6.0341 4.2787 0.0 0
M  V30 30 C 8.882 6.3478 0.0 0
M  V30 31 C 9.8765 6.2433 0.0 0
M  V30 32 C 8.4752 7.2614 0.0 0
M  V30 33 C 10.4643 7.0523 0.0 0
M  V30 34 C 9.063 8.0704 0.0 0
M  V30 35 C 10.0575 7.9658 0.0 0
M  V30 END ATOM
M  V30 BEGIN BOND
M  V30 1 1 1 2
M  V30 2 1 1 3
M  V30 3 2 2 4
M  V30 4 1 2 5
M  V30 5 2 3 6
M  V30 6 1 4 7
M  V30 7 1 4 8
M  V30 8 2 5 9
M  V30 9 2 7 10
M  V30 10 1 8 11
M  V30 11 1 9 12
M  V30 12 1 11 13 CFG=1
M  V30 13 1 11 14
M  V30 14 1 12 15
M  V30 15 1 13 16
M  V30 16 2 14 17
M  V30 17 1 14 18
M  V30 18 1 15 19
M  V30 19 1 16 20
M  V30 20 1 19 21
M  V30 21 1 20 22
M  V30 22 1 20 23
M  V30 23 1 20 24
M  V30 24 1 21 25
M  V30 25 2 21 26
M  V30 26 2 25 27
M  V30 27 1 26 28
M  V30 28 1 26 29
M  V30 29 1 27 30
M  V30 30 2 30 31
M  V30 31 1 30 32
M  V30 32 1 31 33
M  V30 33 2 32 34
M  V30 34 2 33 35
M  V30 35 1 5 6
M  V30 36 1 9 10
M  V30 37 1 27 28
M  V30 38 1 34 35
M  V30 END BOND
M  V30 BEGIN COLLECTION
M  V30 MDLV30/STEABS ATOMS=(1 11)
M  V30 END COLLECTION
M  V30 END CTAB
M  END
>  <Molecule ChEMBL ID>
CHEMBL484607

>  <Smiles>
Cc1oc(-c2ccccc2)nc1CCOc1ccc(C[C@H](OCC(F)(F)F)C(=O)O)c2sccc12

>  <IC50_nM>
3

>  <Assay Description>
Displacement of radio labeled 2(S)-(2-benzoyl-phenylamino)-3-{4-[1,1-ditritio-2-(5-methyl-2-phenyl-oxazol-4-yl)-ethoxy]-phenyl}-propionic acid from GST-fused human PPARgamma expressed in Escherichia coli BL21 cells by scintillation proximity assay

$$$$
CHEMBL483341
Actelion Java MolfileCreator 2.0

  0  0  0  0  0  0              0 V3000
M  V30 BEGIN CTAB
M  V30 COUNTS 34 37 0 0 0
M  V30 BEGIN ATOM
M  V30 1 S 9.4051 1.4672 0.0 0
M  V30 2 C 9.0932 0.0 0.0 0
M  V30 3 C 10.8969 1.624 0.0 0
M  V30 4 C 7.7942 -0.75 0.0 0
M  V30 5 C 10.3923 -0.75 0.0 0
M  V30 6 C 11.507 0.2536 0.0 0
M  V30 7 C 7.7942 -2.25 0.0 0
M  V30 8 C 6.4951 0.0 0.0 0
M  V30 9 C 10.3923 -2.25 0.0 0
M  V30 10 C 9.0932 -3.0 0.0 0
M  V30 11 C 5.1961 -0.75 0.0 0 CFG=2
M  V30 12 O 11.6913 -3.0 0.0 0
M  V30 13 O 3.8971 0.0 0.0 0
M  V30 14 C 5.1961 -2.25 0.0 0
M  V30 15 C 12.9903 -2.25 0.0 0
M  V30 16 C 2.598 -0.75 0.0 0
M  V30 17 O 3.8971 -3.0 0.0 0
M  V30 18 O 6.4951 -3.0 0.0 0
M  V30 19 C 14.2894 -3.0 0.0 0
M  V30 20 C 1.299 0.0 0.0 0
M  V30 21 C 15.5884 -2.25 0.0 0
M  V30 22 C 1.299 1.5 0.0 0
M  V30 23 C 0.0 -0.75 0.0 0
M  V30 24 N 16.9587 -2.8601 0.0 0
M  V30 25 C 15.7452 -0.7582 0.0 0
M  V30 26 C 17.9624 -1.7453 0.0 0
M  V30 27 O 17.2124 -0.4463 0.0 0
M  V30 28 C 14.6305 0.2454 0.0 0
M  V30 29 C 19.4542 -1.9021 0.0 0
M  V30 30 C 20.0643 -3.2724 0.0 0
M  V30 31 C 20.3359 -0.6886 0.0 0
M  V30 32 C 21.5561 -3.4292 0.0 0
M  V30 33 C 21.8277 -0.8454 0.0 0
M  V30 34 C 22.4378 -2.2157 0.0 0
M  V30 END ATOM
M  V30 BEGIN BOND
M  V30 1 1 1 2
M  V30 2 1 1 3
M  V30 3 2 2 4
M  V30 4 1 2 5
M  V30 5 2 3 6
M  V30 6 1 4 7
M  V30 7 1 4 8
M  V30 8 2 5 9
M  V30 9 2 7 10
M  V30 10 1 8 11
M  V30 11 1 9 12
M  V30 12 1 11 13 CFG=1
M  V30 13 1 11 14
M  V30 14 1 12 15
M  V30 15 1 13 16
M  V30 16 2 14 17
M  V30 17 1 14 18
M  V30 18 1 15 19
M  V30 19 1 16 20
M  V30 20 1 19 21
M  V30 21 1 20 22
M  V30 22 1 20 23
M  V30 23 1 21 24
M  V30 24 2 21 25
M  V30 25 2 24 26
M  V30 26 1 25 27
M  V30 27 1 25 28
M  V30 28 1 26 29
M  V30 29 2 29 30
M  V30 30 1 29 31
M  V30 31 1 30 32
M  V30 32 2 31 33
M  V30 33 2 32 34
M  V30 34 1 5 6
M  V30 35 1 9 10
M  V30 36 1 26 27
M  V30 37 1 33 34
M  V30 END BOND
M  V30 BEGIN COLLECTION
M  V30 MDLV30/STERAC1 ATOMS=(1 11)
M  V30 END COLLECTION
M  V30 END CTAB
M  END
>  <Molecule ChEMBL ID>
CHEMBL483341

>  <Smiles>
Cc1oc(-c2ccccc2)nc1CCOc1ccc(CC(OCC(C)C)C(=O)O)c2sccc12

>  <IC50_nM>
3

>  <Assay Description>
Displacement of radio labeled 2(S)-(2-benzoyl-phenylamino)-3-{4-[1,1-ditritio-2-(5-methyl-2-phenyl-oxazol-4-yl)-ethoxy]-phenyl}-propionic acid from GST-fused human PPARgamma expressed in Escherichia coli BL21 cells by scintillation proximity assay

$$$$
CHEMBL521007
Actelion Java MolfileCreator 2.0

  0  0  0  0  0  0              0 V3000
M  V30 BEGIN CTAB
M  V30 COUNTS 35 38 0 0 0
M  V30 BEGIN ATOM
M  V30 1 S 4.1222 -2.9781 0.0 0
M  V30 2 C 4.3301 -2.0 0.0 0
M  V30 3 C 3.1276 -3.0826 0.0 0
M  V30 4 C 5.1961 -1.4999 0.0 0
M  V30 5 C 3.4641 -1.5 0.0 0
M  V30 6 C 2.7209 -2.1691 0.0 0
M  V30 7 C 5.1961 -0.4999 0.0 0
M  V30 8 C 6.0621 -1.9999 0.0 0
M  V30 9 C 3.4641 -0.5 0.0 0
M  V30 10 C 4.3301 0.0 0.0 0
M  V30 11 C 6.9282 -1.5 0.0 0 CFG=2
M  V30 12 O 2.598 0.0 0.0 0
M  V30 13 O 6.9282 -0.5 0.0 0
M  V30 14 C 7.7942 -2.0 0.0 0
M  V30 15 C 1.732 -0.5 0.0 0
M  V30 16 C 6.0621 0.0 0.0 0
M  V30 17 O 7.7942 -3.0 0.0 0
M  V30 18 O 8.6602 -1.5 0.0 0
M  V30 19 C 0.866 0.0 0.0 0
M  V30 20 C 0.0 -0.5 0.0 0
M  V30 21 N -0.9135 -0.0932 0.0 0
M  V30 22 C -0.1045 -1.4945 0.0 0
M  V30 23 C -1.5826 -0.8364 0.0 0
M  V30 24 O -1.0826 -1.7024 0.0 0
M  V30 25 C 0.6386 -2.1636 0.0 0
M  V30 26 C -2.5771 -0.7318 0.0 0
M  V30 27 C -2.9839 0.1816 0.0 0
M  V30 28 C -3.1649 -1.5408 0.0 0
M  V30 29 C -3.9784 0.2861 0.0 0
M  V30 30 C -4.1595 -1.4363 0.0 0
M  V30 31 O -4.3851 1.1997 0.0 0
M  V30 32 C -4.5662 -0.5228 0.0 0
M  V30 33 O -4.7472 -2.2453 0.0 0
M  V30 34 C -5.3797 1.3042 0.0 0
M  V30 35 C -4.3405 -3.1589 0.0 0
M  V30 END ATOM
M  V30 BEGIN BOND
M  V30 1 1 1 2
M  V30 2 1 1 3
M  V30 3 2 2 4
M  V30 4 1 2 5
M  V30 5 2 3 6
M  V30 6 1 4 7
M  V30 7 1 4 8
M  V30 8 2 5 9
M  V30 9 2 7 10
M  V30 10 1 8 11
M  V30 11 1 9 12
M  V30 12 1 11 13 CFG=3
M  V30 13 1 11 14
M  V30 14 1 12 15
M  V30 15 1 13 16
M  V30 16 2 14 17
M  V30 17 1 14 18
M  V30 18 1 15 19
M  V30 19 1 19 20
M  V30 20 1 20 21
M  V30 21 2 20 22
M  V30 22 2 21 23
M  V30 23 1 22 24
M  V30 24 1 22 25
M  V30 25 1 23 26
M  V30 26 2 26 27
M  V30 27 1 26 28
M  V30 28 1 27 29
M  V30 29 2 28 30
M  V30 30 1 29 31
M  V30 31 2 29 32
M  V30 32 1 30 33
M  V30 33 1 31 34
M  V30 34 1 33 35
M  V30 35 1 5 6
M  V30 36 1 9 10
M  V30 37 1 23 24
M  V30 38 1 30 32
M  V30 END BOND
M  V30 BEGIN COLLECTION
M  V30 MDLV30/STEABS ATOMS=(1 11)
M  V30 END COLLECTION
M  V30 END CTAB
M  END
>  <Molecule ChEMBL ID>
CHEMBL521007

>  <Smiles>
COc1cc(OC)cc(-c2nc(CCOc3ccc(C[C@H](OC)C(=O)O)c4sccc34)c(C)o2)c1

>  <IC50_nM>
3

>  <Assay Description>
Displacement of radio labeled 2(S)-(2-benzoyl-phenylamino)-3-{4-[1,1-ditritio-2-(5-methyl-2-phenyl-oxazol-4-yl)-ethoxy]-phenyl}-propionic acid from GST-fused human PPARgamma expressed in Escherichia coli BL21 cells by scintillation proximity assay

$$$$
CHEMBL461944
Actelion Java MolfileCreator 2.0

  0  0  0  0  0  0              0 V3000
M  V30 BEGIN CTAB
M  V30 COUNTS 33 36 0 0 0
M  V30 BEGIN ATOM
M  V30 1 Cl 9.4379 2.0167 0.0 0
M  V30 2 C 9.1289 1.0657 0.0 0
M  V30 3 N 8.1507 0.8577 0.0 0
M  V30 4 C 9.798 0.3225 0.0 0
M  V30 5 C 7.8417 -0.0932 0.0 0
M  V30 6 C 9.489 -0.6284 0.0 0
M  V30 7 N 6.9282 -0.5 0.0 0
M  V30 8 C 8.5108 -0.8364 0.0 0
M  V30 9 C 7.0327 -1.4945 0.0 0
M  V30 10 C 6.0621 0.0 0.0 0
M  V30 11 C 8.0108 -1.7024 0.0 0
M  V30 12 C 6.2895 -2.1636 0.0 0
M  V30 13 C 5.1961 -0.5 0.0 0
M  V30 14 O 8.4176 -2.6159 0.0 0
M  V30 15 C 4.3301 0.0 0.0 0
M  V30 16 C 5.1961 -1.4999 0.0 0
M  V30 17 C 9.4121 -2.7205 0.0 0
M  V30 18 C 3.4641 -0.5 0.0 0
M  V30 19 C 4.3301 -1.9999 0.0 0
M  V30 20 C 9.8188 -3.634 0.0 0
M  V30 21 C 9.9999 -1.9114 0.0 0
M  V30 22 O 2.598 0.0 0.0 0
M  V30 23 C 3.4641 -1.4999 0.0 0
M  V30 24 C 10.8133 -3.7385 0.0 0
M  V30 25 C 10.9944 -2.016 0.0 0
M  V30 26 C 1.732 -0.5 0.0 0 CFG=2
M  V30 27 Cl 2.598 -1.9999 0.0 0
M  V30 28 C 11.4011 -2.9295 0.0 0
M  V30 29 C 0.866 0.0 0.0 0
M  V30 30 C 1.732 -1.5 0.0 0
M  V30 31 Cl 12.3957 -3.034 0.0 0
M  V30 32 O 0.866 1.0 0.0 0
M  V30 33 O 0.0 -0.5 0.0 0
M  V30 END ATOM
M  V30 BEGIN BOND
M  V30 1 1 1 2
M  V30 2 2 2 3
M  V30 3 1 2 4
M  V30 4 1 3 5
M  V30 5 2 4 6
M  V30 6 1 5 7
M  V30 7 2 5 8
M  V30 8 1 7 9
M  V30 9 1 7 10
M  V30 10 1 8 11
M  V30 11 1 9 12
M  V30 12 1 10 13
M  V30 13 1 11 14
M  V30 14 2 13 15
M  V30 15 1 13 16
M  V30 16 1 14 17
M  V30 17 1 15 18
M  V30 18 2 16 19
M  V30 19 2 17 20
M  V30 20 1 17 21
M  V30 21 1 18 22
M  V30 22 2 18 23
M  V30 23 1 20 24
M  V30 24 2 21 25
M  V30 25 1 22 26
M  V30 26 1 23 27
M  V30 27 2 24 28
M  V30 28 1 26 29
M  V30 29 1 26 30 CFG=1
M  V30 30 1 28 31
M  V30 31 2 29 32
M  V30 32 1 29 33
M  V30 33 1 6 8
M  V30 34 2 9 11
M  V30 35 1 19 23
M  V30 36 1 25 28
M  V30 END BOND
M  V30 BEGIN COLLECTION
M  V30 MDLV30/STEABS ATOMS=(1 26)
M  V30 END COLLECTION
M  V30 END CTAB
M  END
>  <Molecule ChEMBL ID>
CHEMBL461944

>  <Smiles>
Cc1c(Oc2ccc(Cl)cc2)c2ccc(Cl)nc2n1Cc1ccc(Cl)c(O[C@@H](C)C(=O)O)c1

>  <IC50_nM>
3

>  <Assay Description>
Displacement of [3H]2AD-5075 from GST-tagged human PPARgamma receptor expressed in Escherichia coli BL21

$$$$
CHEMBL594034
Actelion Java MolfileCreator 2.0

  0  0  0  0  0  0              0 V3000
M  V30 BEGIN CTAB
M  V30 COUNTS 31 34 0 0 0
M  V30 BEGIN ATOM
M  V30 1 O 6.9282 -4.5 0.0 0
M  V30 2 C 6.9282 -3.5 0.0 0
M  V30 3 O 7.7942 -3.0 0.0 0
M  V30 4 C 6.0621 -3.0 0.0 0 CFG=1
M  V30 5 N 5.1961 -3.5 0.0 0
M  V30 6 C 6.0621 -1.9999 0.0 0
M  V30 7 N 4.2826 -3.0932 0.0 0
M  V30 8 N 5.0916 -4.4945 0.0 0
M  V30 9 C 5.1961 -1.4999 0.0 0
M  V30 10 C 3.6134 -3.8364 0.0 0
M  V30 11 C 4.1134 -4.7024 0.0 0
M  V30 12 C 5.1961 -0.5 0.0 0
M  V30 13 C 4.3301 -1.9999 0.0 0
M  V30 14 C 4.3301 0.0 0.0 0
M  V30 15 C 3.4641 -1.5 0.0 0
M  V30 16 C 3.4641 -0.5 0.0 0
M  V30 17 C 2.598 0.0 0.0 0
M  V30 18 C 1.732 -0.5 0.0 0
M  V30 19 C 0.866 0.0 0.0 0
M  V30 20 C 0.0 -0.5 0.0 0
M  V30 21 N -0.9135 -0.0932 0.0 0
M  V30 22 C -0.1045 -1.4945 0.0 0
M  V30 23 C -1.5826 -0.8364 0.0 0
M  V30 24 O -1.0826 -1.7024 0.0 0
M  V30 25 C 0.6386 -2.1636 0.0 0
M  V30 26 C -2.5771 -0.7318 0.0 0
M  V30 27 C -2.9839 0.1816 0.0 0
M  V30 28 C -3.1649 -1.5408 0.0 0
M  V30 29 C -3.9784 0.2861 0.0 0
M  V30 30 C -4.1595 -1.4363 0.0 0
M  V30 31 C -4.5662 -0.5228 0.0 0
M  V30 END ATOM
M  V30 BEGIN BOND
M  V30 1 2 1 2
M  V30 2 1 2 3
M  V30 3 1 2 4
M  V30 4 1 4 5 CFG=1
M  V30 5 1 4 6
M  V30 6 1 5 7
M  V30 7 1 5 8
M  V30 8 1 6 9
M  V30 9 2 7 10
M  V30 10 2 8 11
M  V30 11 2 9 12
M  V30 12 1 9 13
M  V30 13 1 12 14
M  V30 14 2 13 15
M  V30 15 2 14 16
M  V30 16 1 16 17
M  V30 17 1 17 18
M  V30 18 1 18 19
M  V30 19 1 19 20
M  V30 20 1 20 21
M  V30 21 2 20 22
M  V30 22 2 21 23
M  V30 23 1 22 24
M  V30 24 1 22 25
M  V30 25 1 23 26
M  V30 26 2 26 27
M  V30 27 1 26 28
M  V30 28 1 27 29
M  V30 29 2 28 30
M  V30 30 2 29 31
M  V30 31 1 10 11
M  V30 32 1 15 16
M  V30 33 1 23 24
M  V30 34 1 30 31
M  V30 END BOND
M  V30 BEGIN COLLECTION
M  V30 MDLV30/STEABS ATOMS=(1 4)
M  V30 END COLLECTION
M  V30 END CTAB
M  END
>  <Molecule ChEMBL ID>
CHEMBL594034

>  <Smiles>
Cc1oc(-c2ccccc2)nc1CCCc1ccc(C[C@@H](C(=O)O)n2nccn2)cc1

>  <IC50_nM>
3

>  <Assay Description>
Displacement of [3H2]nTZD3 from GST-tagged human PPARgamma expressed in Escherichia coli by SPA

$$$$
CHEMBL3699359
Actelion Java MolfileCreator 2.0

  0  0  0  0  0  0              0 V3000
M  V30 BEGIN CTAB
M  V30 COUNTS 42 47 0 0 0
M  V30 BEGIN ATOM
M  V30 1 O 11.8592 -3.5669 0.0 0
M  V30 2 C 10.8811 -3.7748 0.0 0
M  V30 3 O 10.212 -3.0316 0.0 0
M  V30 4 C 10.5721 -4.7258 0.0 0
M  V30 5 C 9.5939 -4.9337 0.0 0
M  V30 6 C 11.2412 -5.469 0.0 0
M  V30 7 C 8.9248 -4.1906 0.0 0
M  V30 8 C 9.2849 -5.8848 0.0 0
M  V30 9 C 10.9322 -6.42 0.0 0
M  V30 10 C 9.2338 -3.2395 0.0 0
M  V30 11 C 7.9466 -4.3985 0.0 0
M  V30 12 C 9.954 -6.6279 0.0 0
M  V30 13 C 8.5647 -2.4964 0.0 0
M  V30 14 C 7.2775 -3.6554 0.0 0
M  V30 15 C 7.5865 -2.7043 0.0 0
M  V30 16 C 6.9174 -1.9612 0.0 0
M  V30 17 N 5.9392 -2.1691 0.0 0
M  V30 18 C 5.1961 -1.4999 0.0 0
M  V30 19 C 5.5325 -3.0826 0.0 0
M  V30 20 C 4.3301 -1.9999 0.0 0
M  V30 21 C 5.1961 -0.4999 0.0 0
M  V30 22 C 4.538 -2.9781 0.0 0
M  V30 23 C 6.0325 -3.9487 0.0 0
M  V30 24 C 3.4641 -1.5 0.0 0
M  V30 25 C 4.3301 0.0 0.0 0
M  V30 26 C 3.8689 -3.7212 0.0 0
M  V30 27 C 3.4641 -0.5 0.0 0
M  V30 28 C 2.598 0.0 0.0 0
M  V30 29 O 2.598 1.0 0.0 0
M  V30 30 N 1.732 -0.5 0.0 0
M  V30 31 C 0.866 0.0 0.0 0 CFG=1
M  V30 32 C 0.866 1.0 0.0 0
M  V30 33 C 0.0 -0.5 0.0 0
M  V30 34 O 1.732 1.4999 0.0 0
M  V30 35 C 0.0 1.4999 0.0 0
M  V30 36 C 1.732 2.5 0.0 0
M  V30 37 O 0.0 2.5 0.0 0
M  V30 38 C 0.866 3.0 0.0 0
M  V30 39 C 2.598 2.9999 0.0 0
M  V30 40 C 0.866 4.0 0.0 0
M  V30 41 C 2.598 4.0 0.0 0
M  V30 42 C 1.732 4.5 0.0 0
M  V30 END ATOM
M  V30 BEGIN BOND
M  V30 1 2 1 2
M  V30 2 1 2 3
M  V30 3 1 2 4
M  V30 4 2 4 5
M  V30 5 1 4 6
M  V30 6 1 5 7
M  V30 7 1 5 8
M  V30 8 2 6 9
M  V30 9 2 7 10
M  V30 10 1 7 11
M  V30 11 2 8 12
M  V30 12 1 10 13
M  V30 13 2 11 14
M  V30 14 2 13 15
M  V30 15 1 15 16
M  V30 16 1 16 17
M  V30 17 1 17 18
M  V30 18 1 17 19
M  V30 19 2 18 20
M  V30 20 1 18 21
M  V30 21 2 19 22
M  V30 22 1 19 23
M  V30 23 1 20 24
M  V30 24 2 21 25
M  V30 25 1 22 26
M  V30 26 2 24 27
M  V30 27 1 27 28
M  V30 28 2 28 29
M  V30 29 1 28 30
M  V30 30 1 30 31
M  V30 31 1 31 32
M  V30 32 1 31 33 CFG=3
M  V30 33 1 32 34
M  V30 34 1 32 35
M  V30 35 1 34 36
M  V30 36 1 35 37
M  V30 37 2 36 38
M  V30 38 1 36 39
M  V30 39 1 38 40
M  V30 40 2 39 41
M  V30 41 2 40 42
M  V30 42 1 9 12
M  V30 43 1 14 15
M  V30 44 1 20 22
M  V30 45 1 25 27
M  V30 46 1 37 38
M  V30 47 1 41 42
M  V30 END BOND
M  V30 BEGIN COLLECTION
M  V30 MDLV30/STEABS ATOMS=(1 31)
M  V30 END COLLECTION
M  V30 END CTAB
M  END
>  <Molecule ChEMBL ID>
CHEMBL3699359

>  <Smiles>
Cc1c(C)n(Cc2ccc(-c3ccccc3C(=O)O)cc2)c2ccc(C(=O)N[C@H](C)C3COc4ccccc4O3)cc12

>  <IC50_nM>
3

>  <Assay Description>
Lanthascreen Competitive Binding Assay: The assay was performed according to manufacturer protocol. A mixture of nM GST-PPARG-LBD, 5 nM Tb-GST-antibody, 5 nM Fluormone Pan-PPAR Green, and serial dilutions of the experimental compound, beginning at 10 ׬M downwards, was added to wells of black 384-well low-volume plates (Greiner) to a total volume of 18 ׬L. All dilutions were made in TR-FRET assay buffer C. DMSO at 2% final concentration was used as a no-ligand control. Experiment was performed in triplicate, and incubated for 2 hours in the dark prior to assay read in Perkin Elmer ViewLux ultra HTS microplate reader. FRET signal was measured by excitation at 340 nm and emission at 520 nm for fluorescein and 490 nm for terbium. Fold change over DMSO was calculated using GraphPad Prism Software (La Jolla, Calif.) by calculating 520 nm/490 nm ratio. Graphs were plotted as fold change of FRET signal for compound treatment over DMSO-only control.

$$$$
CHEMBL3699396
Actelion Java MolfileCreator 2.0

  0  0  0  0  0  0              0 V3000
M  V30 BEGIN CTAB
M  V30 COUNTS 39 43 0 0 0
M  V30 BEGIN ATOM
M  V30 1 O 11.8592 -3.5669 0.0 0
M  V30 2 C 10.8811 -3.7748 0.0 0
M  V30 3 O 10.212 -3.0316 0.0 0
M  V30 4 C 10.5721 -4.7258 0.0 0
M  V30 5 C 9.5939 -4.9337 0.0 0
M  V30 6 C 11.2412 -5.469 0.0 0
M  V30 7 C 8.9248 -4.1906 0.0 0
M  V30 8 C 9.2849 -5.8848 0.0 0
M  V30 9 C 10.9322 -6.42 0.0 0
M  V30 10 C 9.2338 -3.2395 0.0 0
M  V30 11 C 7.9466 -4.3985 0.0 0
M  V30 12 C 9.954 -6.6279 0.0 0
M  V30 13 C 8.5647 -2.4964 0.0 0
M  V30 14 C 7.2775 -3.6554 0.0 0
M  V30 15 C 7.5865 -2.7043 0.0 0
M  V30 16 C 6.9174 -1.9612 0.0 0
M  V30 17 N 5.9392 -2.1691 0.0 0
M  V30 18 C 5.1961 -1.4999 0.0 0
M  V30 19 C 5.5325 -3.0826 0.0 0
M  V30 20 C 4.3301 -1.9999 0.0 0
M  V30 21 C 5.1961 -0.4999 0.0 0
M  V30 22 C 4.538 -2.9781 0.0 0
M  V30 23 C 6.0325 -3.9487 0.0 0
M  V30 24 C 3.4641 -1.5 0.0 0
M  V30 25 C 4.3301 0.0 0.0 0
M  V30 26 C 3.8689 -3.7212 0.0 0
M  V30 27 C 3.4641 -0.5 0.0 0
M  V30 28 C 2.598 0.0 0.0 0
M  V30 29 O 2.598 1.0 0.0 0
M  V30 30 N 1.732 -0.5 0.0 0
M  V30 31 C 0.866 0.0 0.0 0 CFG=2
M  V30 32 C 0.866 1.0 0.0 0
M  V30 33 C 0.0 -0.5 0.0 0
M  V30 34 C 0.0 1.4999 0.0 0
M  V30 35 C 1.732 1.5 0.0 0
M  V30 36 C 0.0 2.4999 0.0 0
M  V30 37 C -0.866 0.9999 0.0 0
M  V30 38 C 1.732 2.5 0.0 0
M  V30 39 C 0.866 3.0 0.0 0
M  V30 END ATOM
M  V30 BEGIN BOND
M  V30 1 2 1 2
M  V30 2 1 2 3
M  V30 3 1 2 4
M  V30 4 2 4 5
M  V30 5 1 4 6
M  V30 6 1 5 7
M  V30 7 1 5 8
M  V30 8 2 6 9
M  V30 9 2 7 10
M  V30 10 1 7 11
M  V30 11 2 8 12
M  V30 12 1 10 13
M  V30 13 2 11 14
M  V30 14 2 13 15
M  V30 15 1 15 16
M  V30 16 1 16 17
M  V30 17 1 17 18
M  V30 18 1 17 19
M  V30 19 2 18 20
M  V30 20 1 18 21
M  V30 21 2 19 22
M  V30 22 1 19 23
M  V30 23 1 20 24
M  V30 24 2 21 25
M  V30 25 1 22 26
M  V30 26 2 24 27
M  V30 27 1 27 28
M  V30 28 2 28 29
M  V30 29 1 28 30
M  V30 30 1 30 31
M  V30 31 1 31 32
M  V30 32 1 31 33 CFG=1
M  V30 33 2 32 34
M  V30 34 1 32 35
M  V30 35 1 34 36
M  V30 36 1 34 37
M  V30 37 2 35 38
M  V30 38 2 36 39
M  V30 39 1 9 12
M  V30 40 1 14 15
M  V30 41 1 20 22
M  V30 42 1 25 27
M  V30 43 1 38 39
M  V30 END BOND
M  V30 BEGIN COLLECTION
M  V30 MDLV30/STEABS ATOMS=(1 31)
M  V30 END COLLECTION
M  V30 END CTAB
M  END
>  <Molecule ChEMBL ID>
CHEMBL3699396

>  <Smiles>
Cc1ccccc1[C@H](C)NC(=O)c1ccc2c(c1)c(C)c(C)n2Cc1ccc(-c2ccccc2C(=O)O)cc1

>  <IC50_nM>
3

>  <Assay Description>
Binding affinity to GST-tagged PPAR-gamma-LBD (unknown origin) after 2 hrs by Lantha screen assay using fluormone Pan-PPAR green probe

$$$$
CHEMBL1946756
Actelion Java MolfileCreator 2.0

  0  0  0  0  0  0              0 V3000
M  V30 BEGIN CTAB
M  V30 COUNTS 40 44 0 0 0
M  V30 BEGIN ATOM
M  V30 1 Cl 4.3301 0.9999 0.0 0
M  V30 2 C 4.3301 0.0 0.0 0
M  V30 3 C 3.4641 -0.5 0.0 0
M  V30 4 C 5.1961 -0.5 0.0 0
M  V30 5 O 2.598 0.0 0.0 0
M  V30 6 C 3.4641 -1.5 0.0 0
M  V30 7 C 5.1961 -1.5 0.0 0
M  V30 8 C 1.732 -0.5 0.0 0 CFG=1
M  V30 9 C 4.3301 -2.0 0.0 0
M  V30 10 C 0.866 0.0 0.0 0
M  V30 11 C 1.732 -1.5 0.0 0
M  V30 12 C 4.3301 -3.0 0.0 0
M  V30 13 O 0.866 1.0 0.0 0
M  V30 14 O 0.0 -0.5 0.0 0
M  V30 15 N 5.1961 -3.5 0.0 0
M  V30 16 C 5.3006 -4.4945 0.0 0
M  V30 17 C 6.1096 -3.0932 0.0 0
M  V30 18 O 4.5575 -5.1636 0.0 0
M  V30 19 N 6.2788 -4.7024 0.0 0
M  V30 20 C 6.7788 -3.8364 0.0 0
M  V30 21 C 6.4187 -2.1422 0.0 0
M  V30 22 C 6.6855 -5.6159 0.0 0
M  V30 23 C 7.7569 -3.6284 0.0 0
M  V30 24 C 7.3968 -1.9342 0.0 0
M  V30 25 N 6.1855 -6.482 0.0 0
M  V30 26 C 7.6637 -5.8238 0.0 0
M  V30 27 C 8.0659 -2.6774 0.0 0
M  V30 28 O 7.7058 -0.9832 0.0 0
M  V30 29 O 6.8546 -7.2251 0.0 0
M  V30 30 C 7.7682 -6.8184 0.0 0
M  V30 31 C 8.4727 -5.2361 0.0 0
M  V30 32 C 7.0367 -0.24 0.0 0
M  V30 33 C 8.6817 -7.2251 0.0 0
M  V30 34 C 9.3862 -5.6428 0.0 0
M  V30 35 F 6.2936 -0.9092 0.0 0
M  V30 36 F 6.3676 0.503 0.0 0
M  V30 37 F 7.7798 0.429 0.0 0
M  V30 38 C 9.4908 -6.6373 0.0 0
M  V30 39 O 10.4043 -7.0441 0.0 0
M  V30 40 C 11.2133 -6.4563 0.0 0
M  V30 END ATOM
M  V30 BEGIN BOND
M  V30 1 1 1 2
M  V30 2 2 2 3
M  V30 3 1 2 4
M  V30 4 1 3 5
M  V30 5 1 3 6
M  V30 6 2 4 7
M  V30 7 1 5 8
M  V30 8 2 6 9
M  V30 9 1 8 10
M  V30 10 1 8 11 CFG=3
M  V30 11 1 9 12
M  V30 12 2 10 13
M  V30 13 1 10 14
M  V30 14 1 12 15
M  V30 15 1 15 16
M  V30 16 1 15 17
M  V30 17 2 16 18
M  V30 18 1 16 19
M  V30 19 2 17 20
M  V30 20 1 17 21
M  V30 21 1 19 22
M  V30 22 1 20 23
M  V30 23 2 21 24
M  V30 24 2 22 25
M  V30 25 1 22 26
M  V30 26 2 23 27
M  V30 27 1 24 28
M  V30 28 1 25 29
M  V30 29 2 26 30
M  V30 30 1 26 31
M  V30 31 1 28 32
M  V30 32 1 30 33
M  V30 33 2 31 34
M  V30 34 1 32 35
M  V30 35 1 32 36
M  V30 36 1 32 37
M  V30 37 2 33 38
M  V30 38 1 38 39
M  V30 39 1 39 40
M  V30 40 1 7 9
M  V30 41 1 19 20
M  V30 42 1 24 27
M  V30 43 1 29 30
M  V30 44 1 34 38
M  V30 END BOND
M  V30 BEGIN COLLECTION
M  V30 MDLV30/STEABS ATOMS=(1 8)
M  V30 END COLLECTION
M  V30 END CTAB
M  END
>  <Molecule ChEMBL ID>
CHEMBL1946756

>  <Smiles>
COc1ccc2c(-n3c(=O)n(Cc4ccc(Cl)c(O[C@H](C)C(=O)O)c4)c4cc(OC(F)(F)F)ccc43)noc2c1

>  <IC50_nM>
3.2

>  <Assay Description>
Binding affinity to human PPARgamma by scintillation proximity assay

$$$$
CHEMBL5199152
Actelion Java MolfileCreator 2.0

  0  0  0  0  0  0              0 V3000
M  V30 BEGIN CTAB
M  V30 COUNTS 31 34 0 0 0
M  V30 BEGIN ATOM
M  V30 1 Cl 1.732 1.4999 0.0 0
M  V30 2 C 2.598 1.0 0.0 0
M  V30 3 C 2.598 0.0 0.0 0
M  V30 4 C 3.4641 1.4999 0.0 0
M  V30 5 C 1.732 -0.5 0.0 0
M  V30 6 C 3.4641 -0.5 0.0 0
M  V30 7 C 4.3301 1.0 0.0 0
M  V30 8 O 1.732 -1.5 0.0 0
M  V30 9 N 0.866 0.0 0.0 0
M  V30 10 C 4.3301 0.0 0.0 0
M  V30 11 C 0.0 -0.5 0.0 0
M  V30 12 N 5.1961 -0.5 0.0 0 CHG=1
M  V30 13 C -0.866 0.0 0.0 0
M  V30 14 C 0.0 -1.5 0.0 0
M  V30 15 O 5.1961 -1.5 0.0 0
M  V30 16 O 6.0621 0.0 0.0 0 CHG=-1
M  V30 17 C -1.732 -0.4999 0.0 0
M  V30 18 C -0.866 -1.9999 0.0 0
M  V30 19 N -2.6831 -0.1909 0.0 0
M  V30 20 C -1.732 -1.4999 0.0 0
M  V30 21 C -3.2708 -0.9999 0.0 0
M  V30 22 C -2.9921 0.76 0.0 0
M  V30 23 N -2.6831 -1.809 0.0 0
M  V30 24 C -4.2708 -0.9999 0.0 0
M  V30 25 C -4.7708 -0.1339 0.0 0
M  V30 26 C -4.7708 -1.866 0.0 0
M  V30 27 C -5.7708 -0.1339 0.0 0
M  V30 28 C -5.7708 -1.866 0.0 0
M  V30 29 C -6.2708 -0.9999 0.0 0
M  V30 30 C -7.2708 -0.9999 0.0 0
M  V30 31 C -7.7708 -1.866 0.0 0
M  V30 END ATOM
M  V30 BEGIN BOND
M  V30 1 1 1 2
M  V30 2 2 2 3
M  V30 3 1 2 4
M  V30 4 1 3 5
M  V30 5 1 3 6
M  V30 6 2 4 7
M  V30 7 2 5 8
M  V30 8 1 5 9
M  V30 9 2 6 10
M  V30 10 1 9 11
M  V30 11 1 10 12
M  V30 12 2 11 13
M  V30 13 1 11 14
M  V30 14 2 12 15
M  V30 15 1 12 16
M  V30 16 1 13 17
M  V30 17 2 14 18
M  V30 18 1 17 19
M  V30 19 2 17 20
M  V30 20 1 19 21
M  V30 21 1 19 22
M  V30 22 1 20 23
M  V30 23 1 21 24
M  V30 24 2 24 25
M  V30 25 1 24 26
M  V30 26 1 25 27
M  V30 27 2 26 28
M  V30 28 2 27 29
M  V30 29 1 29 30
M  V30 30 1 30 31
M  V30 31 1 7 10
M  V30 32 1 18 20
M  V30 33 2 21 23
M  V30 34 1 28 29
M  V30 END BOND
M  V30 END CTAB
M  END
>  <Molecule ChEMBL ID>
CHEMBL5199152

>  <Smiles>
CCc1ccc(-c2nc3ccc(NC(=O)c4cc([N+](=O)[O-])ccc4Cl)cc3n2C)cc1

>  <IC50_nM>
3.3

>  <Assay Description>
Inverse agonist activity at PPARgamma in human RT112/84-FABP4 cells assessed as reduction in PPARgamma transactivation measured by Nanoluciferase reporter gene assay

$$$$
CHEMBL3695766
Actelion Java MolfileCreator 2.0

  0  0  0  0  0  0              0 V3000
M  V30 BEGIN CTAB
M  V30 COUNTS 38 42 0 0 0
M  V30 BEGIN ATOM
M  V30 1 I 9.0932 -3.0 0.0 0
M  V30 2 C 7.7942 -2.25 0.0 0
M  V30 3 C 7.7942 -0.75 0.0 0
M  V30 4 C 6.4951 -2.9999 0.0 0
M  V30 5 C 6.4951 0.0 0.0 0
M  V30 6 C 5.1961 -2.25 0.0 0
M  V30 7 C 5.1961 -0.75 0.0 0
M  V30 8 C 3.8971 0.0 0.0 0
M  V30 9 N 2.598 -0.75 0.0 0
M  V30 10 C 1.299 0.0 0.0 0
M  V30 11 O 1.299 1.5 0.0 0
M  V30 12 C 0.0 -0.75 0.0 0
M  V30 13 C 0.0 -2.25 0.0 0
M  V30 14 C -1.299 0.0 0.0 0
M  V30 15 C -1.299 -2.9999 0.0 0
M  V30 16 C -2.598 -0.7499 0.0 0
M  V30 17 C -2.598 -2.2499 0.0 0
M  V30 18 C -1.6109 -4.4672 0.0 0
M  V30 19 N -3.7127 -3.2536 0.0 0
M  V30 20 C -3.1026 -4.624 0.0 0
M  V30 21 C -0.6072 -5.5819 0.0 0
M  V30 22 C -5.18 -2.9418 0.0 0
M  V30 23 C -3.8526 -5.923 0.0 0
M  V30 24 C -6.1837 -4.0565 0.0 0
M  V30 25 C -7.6509 -3.7446 0.0 0
M  V30 26 C -5.7201 -5.4831 0.0 0
M  V30 27 C -8.6546 -4.8593 0.0 0
M  V30 28 C -6.7238 -6.5978 0.0 0
M  V30 29 C -8.1911 -6.2859 0.0 0
M  V30 30 C -9.1947 -7.4006 0.0 0
M  V30 31 C -10.662 -7.0888 0.0 0
M  V30 32 C -8.7312 -8.8272 0.0 0
M  V30 33 C -11.1255 -5.6622 0.0 0
M  V30 34 C -11.6657 -8.2035 0.0 0
M  V30 35 C -9.7349 -9.9419 0.0 0
M  V30 36 O -10.1218 -4.5475 0.0 0
M  V30 37 O -12.5927 -5.3503 0.0 0
M  V30 38 C -11.2021 -9.6301 0.0 0
M  V30 END ATOM
M  V30 BEGIN BOND
M  V30 1 1 1 2
M  V30 2 2 2 3
M  V30 3 1 2 4
M  V30 4 1 3 5
M  V30 5 2 4 6
M  V30 6 2 5 7
M  V30 7 1 7 8
M  V30 8 1 8 9
M  V30 9 1 9 10
M  V30 10 2 10 11
M  V30 11 1 10 12
M  V30 12 2 12 13
M  V30 13 1 12 14
M  V30 14 1 13 15
M  V30 15 2 14 16
M  V30 16 2 15 17
M  V30 17 1 15 18
M  V30 18 1 17 19
M  V30 19 2 18 20
M  V30 20 1 18 21
M  V30 21 1 19 22
M  V30 22 1 20 23
M  V30 23 1 22 24
M  V30 24 2 24 25
M  V30 25 1 24 26
M  V30 26 1 25 27
M  V30 27 2 26 28
M  V30 28 2 27 29
M  V30 29 1 29 30
M  V30 30 2 30 31
M  V30 31 1 30 32
M  V30 32 1 31 33
M  V30 33 1 31 34
M  V30 34 2 32 35
M  V30 35 2 33 36
M  V30 36 1 33 37
M  V30 37 2 34 38
M  V30 38 1 6 7
M  V30 39 1 16 17
M  V30 40 1 19 20
M  V30 41 1 28 29
M  V30 42 1 35 38
M  V30 END BOND
M  V30 END CTAB
M  END
>  <Molecule ChEMBL ID>
CHEMBL3695766

>  <Smiles>
Cc1c(C)n(Cc2ccc(-c3ccccc3C(=O)O)cc2)c2ccc(C(=O)NCc3ccc(I)cc3)cc12

>  <IC50_nM>
4

>  <Assay Description>
Lanthascreen Competitive Binding Assay: The assay was performed according to manufacturer protocol. A mixture of nM GST-PPARG-LBD, 5 nM Tb-GST-antibody, 5 nM Fluormone Pan-PPAR Green, and serial dilutions of the experimental compound, beginning at 10 ׬M downwards, was added to wells of black 384-well low-volume plates (Greiner) to a total volume of 18 ׬L. All dilutions were made in TR-FRET assay buffer C. DMSO at 2% final concentration was used as a no-ligand control. Experiment was performed in triplicate, and incubated for 2 hours in the dark prior to assay read in Perkin Elmer ViewLux ultra HTS microplate reader. FRET signal was measured by excitation at 340 nm and emission at 520 nm for fluorescein and 490 nm for terbium. Fold change over DMSO was calculated using GraphPad Prism Software (La Jolla, Calif.) by calculating 520 nm/490 nm ratio. Graphs were plotted as fold change of FRET signal for compound treatment over DMSO-only control.

$$$$
CHEMBL521462
Actelion Java MolfileCreator 2.0

  0  0  0  0  0  0              0 V3000
M  V30 BEGIN CTAB
M  V30 COUNTS 33 36 0 0 0
M  V30 BEGIN ATOM
M  V30 1 S 6.27 0.9781 0.0 0
M  V30 2 C 6.0621 0.0 0.0 0
M  V30 3 C 7.2646 1.0826 0.0 0
M  V30 4 C 5.1961 -0.5 0.0 0
M  V30 5 C 6.9282 -0.5 0.0 0
M  V30 6 C 7.6713 0.1691 0.0 0
M  V30 7 C 5.1961 -1.5 0.0 0
M  V30 8 C 4.3301 0.0 0.0 0
M  V30 9 C 6.9282 -1.5 0.0 0
M  V30 10 C 6.0621 -2.0 0.0 0
M  V30 11 C 3.4641 -0.5 0.0 0 CFG=2
M  V30 12 O 7.7942 -2.0 0.0 0
M  V30 13 O 2.598 0.0 0.0 0
M  V30 14 C 3.4641 -1.5 0.0 0
M  V30 15 C 8.6602 -1.5 0.0 0
M  V30 16 C 1.732 -0.5 0.0 0
M  V30 17 O 2.598 -1.9999 0.0 0
M  V30 18 O 4.3301 -2.0 0.0 0
M  V30 19 C 9.5262 -2.0 0.0 0
M  V30 20 C 0.866 0.0 0.0 0
M  V30 21 C 10.3923 -1.5 0.0 0
M  V30 22 C 0.0 -0.5 0.0 0
M  V30 23 N 11.3058 -1.9067 0.0 0
M  V30 24 C 10.4968 -0.5054 0.0 0
M  V30 25 C 11.9749 -1.1635 0.0 0
M  V30 26 O 11.4749 -0.2975 0.0 0
M  V30 27 C 9.7536 0.1636 0.0 0
M  V30 28 C 12.9695 -1.2681 0.0 0
M  V30 29 C 13.3762 -2.1816 0.0 0
M  V30 30 C 13.5572 -0.4591 0.0 0
M  V30 31 C 14.3707 -2.2861 0.0 0
M  V30 32 C 14.5518 -0.5636 0.0 0
M  V30 33 C 14.9585 -1.4771 0.0 0
M  V30 END ATOM
M  V30 BEGIN BOND
M  V30 1 1 1 2
M  V30 2 1 1 3
M  V30 3 2 2 4
M  V30 4 1 2 5
M  V30 5 2 3 6
M  V30 6 1 4 7
M  V30 7 1 4 8
M  V30 8 2 5 9
M  V30 9 2 7 10
M  V30 10 1 8 11
M  V30 11 1 9 12
M  V30 12 1 11 13 CFG=1
M  V30 13 1 11 14
M  V30 14 1 12 15
M  V30 15 1 13 16
M  V30 16 2 14 17
M  V30 17 1 14 18
M  V30 18 1 15 19
M  V30 19 1 16 20
M  V30 20 1 19 21
M  V30 21 1 20 22
M  V30 22 1 21 23
M  V30 23 2 21 24
M  V30 24 2 23 25
M  V30 25 1 24 26
M  V30 26 1 24 27
M  V30 27 1 25 28
M  V30 28 2 28 29
M  V30 29 1 28 30
M  V30 30 1 29 31
M  V30 31 2 30 32
M  V30 32 2 31 33
M  V30 33 1 5 6
M  V30 34 1 9 10
M  V30 35 1 25 26
M  V30 36 1 32 33
M  V30 END BOND
M  V30 BEGIN COLLECTION
M  V30 MDLV30/STERAC1 ATOMS=(1 11)
M  V30 END COLLECTION
M  V30 END CTAB
M  END
>  <Molecule ChEMBL ID>
CHEMBL521462

>  <Smiles>
CCCOC(Cc1ccc(OCCc2nc(-c3ccccc3)oc2C)c2ccsc12)C(=O)O

>  <IC50_nM>
4

>  <Assay Description>
Displacement of radio labeled 2(S)-(2-benzoyl-phenylamino)-3-{4-[1,1-ditritio-2-(5-methyl-2-phenyl-oxazol-4-yl)-ethoxy]-phenyl}-propionic acid from GST-fused human PPARgamma expressed in Escherichia coli BL21 cells by scintillation proximity assay

$$$$
CHEMBL3678089
Actelion Java MolfileCreator 2.0

  0  0  0  0  0  0              0 V3000
M  V30 BEGIN CTAB
M  V30 COUNTS 30 33 0 0 0
M  V30 BEGIN ATOM
M  V30 1 F 13.3106 -2.318 0.0 0
M  V30 2 C 12.8471 -3.7446 0.0 0
M  V30 3 C 11.3798 -4.0565 0.0 0
M  V30 4 C 13.8507 -4.8594 0.0 0
M  V30 5 C 10.9163 -5.4831 0.0 0
M  V30 6 C 10.3761 -2.9418 0.0 0
M  V30 7 C 13.3872 -6.2859 0.0 0
M  V30 8 C 11.92 -6.5978 0.0 0
M  V30 9 N 8.9089 -3.2537 0.0 0
M  V30 10 F 14.3909 -7.4007 0.0 0
M  V30 11 C 7.7942 -2.25 0.0 0
M  V30 12 C 8.2988 -4.624 0.0 0
M  V30 13 C 6.4951 -3.0 0.0 0
M  V30 14 C 7.7942 -0.75 0.0 0
M  V30 15 C 6.807 -4.4672 0.0 0
M  V30 16 C 5.1961 -2.25 0.0 0
M  V30 17 C 6.4951 0.0 0.0 0
M  V30 18 C 5.1961 -0.75 0.0 0
M  V30 19 C 3.8971 0.0 0.0 0
M  V30 20 O 3.8971 1.5 0.0 0
M  V30 21 N 2.598 -0.75 0.0 0
M  V30 22 C 1.299 0.0 0.0 0
M  V30 23 C 0.0 -0.75 0.0 0
M  V30 24 C 2.049 1.299 0.0 0
M  V30 25 C 0.549 1.299 0.0 0
M  V30 26 C -1.299 0.0 0.0 0
M  V30 27 C 0.0 -2.25 0.0 0
M  V30 28 C -2.598 -0.75 0.0 0
M  V30 29 C -1.299 -3.0 0.0 0
M  V30 30 C -2.598 -2.25 0.0 0
M  V30 END ATOM
M  V30 BEGIN BOND
M  V30 1 1 1 2
M  V30 2 2 2 3
M  V30 3 1 2 4
M  V30 4 1 3 5
M  V30 5 1 3 6
M  V30 6 2 4 7
M  V30 7 2 5 8
M  V30 8 1 6 9
M  V30 9 1 7 10
M  V30 10 1 9 11
M  V30 11 1 9 12
M  V30 12 2 11 13
M  V30 13 1 11 14
M  V30 14 2 12 15
M  V30 15 1 13 16
M  V30 16 2 14 17
M  V30 17 2 16 18
M  V30 18 1 18 19
M  V30 19 2 19 20
M  V30 20 1 19 21
M  V30 21 1 21 22
M  V30 22 1 22 23
M  V30 23 1 22 24
M  V30 24 1 22 25
M  V30 25 2 23 26
M  V30 26 1 23 27
M  V30 27 1 26 28
M  V30 28 2 27 29
M  V30 29 2 28 30
M  V30 30 1 7 8
M  V30 31 1 13 15
M  V30 32 1 17 18
M  V30 33 1 29 30
M  V30 END BOND
M  V30 END CTAB
M  END
>  <Molecule ChEMBL ID>
CHEMBL3678089

>  <Smiles>
CC(C)(NC(=O)c1ccc2c(ccn2Cc2ccc(F)cc2F)c1)c1ccccc1

>  <IC50_nM>
4

>  <Assay Description>
Lanthascreen Competitive Binding Assay: The assay was performed according to manufacturer protocol. A mixture of 5 nM GST-PPARG-LBD, 5 nM Tb-GST-antibody, 5 nM Fluormone Pan- PPAR Green, and serial dilutions of the experimental compound, beginning at 10 ׬� downwards, was added to wells of black 384-well low- volume plates (Greiner) to a total volume of 18 xL. All dilutions were made in TR-FRET assay buffer C. DMSO at 2% final concentration was used as a no-ligand control. Experiment was performed in triplicate, and incubated for 2 hours in the dark prior to assay read in Perkin Elmer ViewLux ultra HTS microplate reader. FRET signal was measured by excitation at 340 nm and emission at 520 nm for fluorescein and 490 nm for terbium.

$$$$
CHEMBL3699408
Actelion Java MolfileCreator 2.0

  0  0  0  0  0  0              0 V3000
M  V30 BEGIN CTAB
M  V30 COUNTS 39 43 0 0 0
M  V30 BEGIN ATOM
M  V30 1 Cl 6.0621 0.0 0.0 0
M  V30 2 C 5.1961 -0.5 0.0 0
M  V30 3 C 4.3301 0.0 0.0 0
M  V30 4 C 5.1961 -1.4999 0.0 0
M  V30 5 C 3.4641 -0.5 0.0 0
M  V30 6 C 4.3301 -1.9999 0.0 0
M  V30 7 N 3.4641 -1.4999 0.0 0
M  V30 8 C 2.598 0.0 0.0 0 CFG=1
M  V30 9 N 1.732 -0.5 0.0 0
M  V30 10 C 2.598 1.0 0.0 0
M  V30 11 C 0.866 0.0 0.0 0
M  V30 12 O 0.866 1.0 0.0 0
M  V30 13 C 0.0 -0.5 0.0 0
M  V30 14 C 0.0 -1.4999 0.0 0
M  V30 15 C -0.866 0.0 0.0 0
M  V30 16 C -0.866 -1.9999 0.0 0
M  V30 17 C -1.732 -0.4999 0.0 0
M  V30 18 C -1.732 -1.4999 0.0 0
M  V30 19 C -1.0739 -2.9781 0.0 0
M  V30 20 N -2.4751 -2.1691 0.0 0
M  V30 21 C -2.0684 -3.0826 0.0 0
M  V30 22 C -0.4048 -3.7212 0.0 0
M  V30 23 C -3.4533 -1.9612 0.0 0
M  V30 24 C -2.5684 -3.9487 0.0 0
M  V30 25 C -4.1224 -2.7043 0.0 0
M  V30 26 C -5.1006 -2.4964 0.0 0
M  V30 27 C -3.8134 -3.6554 0.0 0
M  V30 28 C -5.7697 -3.2395 0.0 0
M  V30 29 C -4.4825 -4.3985 0.0 0
M  V30 30 C -5.4607 -4.1906 0.0 0
M  V30 31 C -6.1298 -4.9337 0.0 0
M  V30 32 C -7.108 -4.7258 0.0 0
M  V30 33 C -5.8208 -5.8848 0.0 0
M  V30 34 C -7.417 -3.7748 0.0 0
M  V30 35 C -7.7771 -5.469 0.0 0
M  V30 36 C -6.4899 -6.6279 0.0 0
M  V30 37 O -6.7478 -3.0316 0.0 0
M  V30 38 O -8.3951 -3.5669 0.0 0
M  V30 39 C -7.4681 -6.42 0.0 0
M  V30 END ATOM
M  V30 BEGIN BOND
M  V30 1 1 1 2
M  V30 2 2 2 3
M  V30 3 1 2 4
M  V30 4 1 3 5
M  V30 5 2 4 6
M  V30 6 2 5 7
M  V30 7 1 5 8
M  V30 8 1 8 9
M  V30 9 1 8 10 CFG=1
M  V30 10 1 9 11
M  V30 11 2 11 12
M  V30 12 1 11 13
M  V30 13 2 13 14
M  V30 14 1 13 15
M  V30 15 1 14 16
M  V30 16 2 15 17
M  V30 17 2 16 18
M  V30 18 1 16 19
M  V30 19 1 18 20
M  V30 20 2 19 21
M  V30 21 1 19 22
M  V30 22 1 20 23
M  V30 23 1 21 24
M  V30 24 1 23 25
M  V30 25 2 25 26
M  V30 26 1 25 27
M  V30 27 1 26 28
M  V30 28 2 27 29
M  V30 29 2 28 30
M  V30 30 1 30 31
M  V30 31 2 31 32
M  V30 32 1 31 33
M  V30 33 1 32 34
M  V30 34 1 32 35
M  V30 35 2 33 36
M  V30 36 2 34 37
M  V30 37 1 34 38
M  V30 38 2 35 39
M  V30 39 1 6 7
M  V30 40 1 17 18
M  V30 41 1 20 21
M  V30 42 1 29 30
M  V30 43 1 36 39
M  V30 END BOND
M  V30 BEGIN COLLECTION
M  V30 MDLV30/STEABS ATOMS=(1 8)
M  V30 END COLLECTION
M  V30 END CTAB
M  END
>  <Molecule ChEMBL ID>
CHEMBL3699408

>  <Smiles>
Cc1c(C)n(Cc2ccc(-c3ccccc3C(=O)O)cc2)c2ccc(C(=O)N[C@@H](C)c3cc(Cl)ccn3)cc12

>  <IC50_nM>
4

>  <Assay Description>
Lanthascreen Competitive Binding Assay: The assay was performed according to manufacturer protocol. A mixture of nM GST-PPARG-LBD, 5 nM Tb-GST-antibody, 5 nM Fluormone Pan-PPAR Green, and serial dilutions of the experimental compound, beginning at 10 ׬M downwards, was added to wells of black 384-well low-volume plates (Greiner) to a total volume of 18 ׬L. All dilutions were made in TR-FRET assay buffer C. DMSO at 2% final concentration was used as a no-ligand control. Experiment was performed in triplicate, and incubated for 2 hours in the dark prior to assay read in Perkin Elmer ViewLux ultra HTS microplate reader. FRET signal was measured by excitation at 340 nm and emission at 520 nm for fluorescein and 490 nm for terbium. Fold change over DMSO was calculated using GraphPad Prism Software (La Jolla, Calif.) by calculating 520 nm/490 nm ratio. Graphs were plotted as fold change of FRET signal for compound treatment over DMSO-only control.

$$$$
CHEMBL3699430
Actelion Java MolfileCreator 2.0

  0  0  0  0  0  0              0 V3000
M  V30 BEGIN CTAB
M  V30 COUNTS 40 44 0 0 0
M  V30 BEGIN ATOM
M  V30 1 Cl 4.3301 0.9999 0.0 0
M  V30 2 C 4.3301 0.0 0.0 0
M  V30 3 C 3.4641 -0.5 0.0 0
M  V30 4 C 5.1961 -0.5 0.0 0
M  V30 5 C 3.4641 -1.5 0.0 0
M  V30 6 C 2.598 0.0 0.0 0 CFG=1
M  V30 7 C 5.1961 -1.5 0.0 0
M  V30 8 C 4.3301 -2.0 0.0 0
M  V30 9 N 1.732 -0.5 0.0 0
M  V30 10 C 2.598 1.0 0.0 0
M  V30 11 Cl 6.0621 -2.0 0.0 0
M  V30 12 C 0.866 0.0 0.0 0
M  V30 13 O 0.866 1.0 0.0 0
M  V30 14 C 0.0 -0.5 0.0 0
M  V30 15 C 0.0 -1.4999 0.0 0
M  V30 16 C -0.866 0.0 0.0 0
M  V30 17 C -0.866 -1.9999 0.0 0
M  V30 18 C -1.732 -0.4999 0.0 0
M  V30 19 C -1.732 -1.4999 0.0 0
M  V30 20 C -1.0739 -2.9781 0.0 0
M  V30 21 N -2.4751 -2.1691 0.0 0
M  V30 22 C -2.0684 -3.0826 0.0 0
M  V30 23 C -0.4048 -3.7212 0.0 0
M  V30 24 C -3.4533 -1.9612 0.0 0
M  V30 25 C -2.5684 -3.9487 0.0 0
M  V30 26 C -4.1224 -2.7043 0.0 0
M  V30 27 C -5.1006 -2.4964 0.0 0
M  V30 28 C -3.8134 -3.6554 0.0 0
M  V30 29 C -5.7697 -3.2395 0.0 0
M  V30 30 C -4.4825 -4.3985 0.0 0
M  V30 31 C -5.4607 -4.1906 0.0 0
M  V30 32 C -6.1298 -4.9337 0.0 0
M  V30 33 C -7.108 -4.7258 0.0 0
M  V30 34 C -5.8208 -5.8848 0.0 0
M  V30 35 C -7.417 -3.7748 0.0 0
M  V30 36 C -7.7771 -5.469 0.0 0
M  V30 37 C -6.4899 -6.6279 0.0 0
M  V30 38 O -6.7478 -3.0316 0.0 0
M  V30 39 O -8.3951 -3.5669 0.0 0
M  V30 40 C -7.4681 -6.42 0.0 0
M  V30 END ATOM
M  V30 BEGIN BOND
M  V30 1 1 1 2
M  V30 2 2 2 3
M  V30 3 1 2 4
M  V30 4 1 3 5
M  V30 5 1 3 6
M  V30 6 2 4 7
M  V30 7 2 5 8
M  V30 8 1 6 9
M  V30 9 1 6 10 CFG=1
M  V30 10 1 7 11
M  V30 11 1 9 12
M  V30 12 2 12 13
M  V30 13 1 12 14
M  V30 14 2 14 15
M  V30 15 1 14 16
M  V30 16 1 15 17
M  V30 17 2 16 18
M  V30 18 2 17 19
M  V30 19 1 17 20
M  V30 20 1 19 21
M  V30 21 2 20 22
M  V30 22 1 20 23
M  V30 23 1 21 24
M  V30 24 1 22 25
M  V30 25 1 24 26
M  V30 26 2 26 27
M  V30 27 1 26 28
M  V30 28 1 27 29
M  V30 29 2 28 30
M  V30 30 2 29 31
M  V30 31 1 31 32
M  V30 32 2 32 33
M  V30 33 1 32 34
M  V30 34 1 33 35
M  V30 35 1 33 36
M  V30 36 2 34 37
M  V30 37 2 35 38
M  V30 38 1 35 39
M  V30 39 2 36 40
M  V30 40 1 7 8
M  V30 41 1 18 19
M  V30 42 1 21 22
M  V30 43 1 30 31
M  V30 44 1 37 40
M  V30 END BOND
M  V30 BEGIN COLLECTION
M  V30 MDLV30/STEABS ATOMS=(1 6)
M  V30 END COLLECTION
M  V30 END CTAB
M  END
>  <Molecule ChEMBL ID>
CHEMBL3699430

>  <Smiles>
Cc1c(C)n(Cc2ccc(-c3ccccc3C(=O)O)cc2)c2ccc(C(=O)N[C@@H](C)c3ccc(Cl)cc3Cl)cc12

>  <IC50_nM>
4

>  <Assay Description>
Lanthascreen Competitive Binding Assay: The assay was performed according to manufacturer protocol. A mixture of nM GST-PPARG-LBD, 5 nM Tb-GST-antibody, 5 nM Fluormone Pan-PPAR Green, and serial dilutions of the experimental compound, beginning at 10 ׬M downwards, was added to wells of black 384-well low-volume plates (Greiner) to a total volume of 18 ׬L. All dilutions were made in TR-FRET assay buffer C. DMSO at 2% final concentration was used as a no-ligand control. Experiment was performed in triplicate, and incubated for 2 hours in the dark prior to assay read in Perkin Elmer ViewLux ultra HTS microplate reader. FRET signal was measured by excitation at 340 nm and emission at 520 nm for fluorescein and 490 nm for terbium. Fold change over DMSO was calculated using GraphPad Prism Software (La Jolla, Calif.) by calculating 520 nm/490 nm ratio. Graphs were plotted as fold change of FRET signal for compound treatment over DMSO-only control.

$$$$
CHEMBL3695891
Actelion Java MolfileCreator 2.0

  0  0  0  0  0  0              0 V3000
M  V30 BEGIN CTAB
M  V30 COUNTS 37 41 0 0 0
M  V30 BEGIN ATOM
M  V30 1 Cl 2.598 -1.9999 0.0 0
M  V30 2 C 3.4641 -1.4999 0.0 0
M  V30 3 C 4.3301 -1.9999 0.0 0
M  V30 4 C 3.4641 -0.5 0.0 0
M  V30 5 F 4.3301 -2.9999 0.0 0
M  V30 6 C 5.1961 -1.4999 0.0 0
M  V30 7 C 4.3301 0.0 0.0 0
M  V30 8 C 2.598 0.0 0.0 0 CFG=1
M  V30 9 C 5.1961 -0.4999 0.0 0
M  V30 10 N 1.732 -0.5 0.0 0
M  V30 11 C 2.598 1.0 0.0 0
M  V30 12 C 0.866 0.0 0.0 0
M  V30 13 O 0.866 1.0 0.0 0
M  V30 14 C 0.0 -0.5 0.0 0
M  V30 15 C 0.0 -1.4999 0.0 0
M  V30 16 C -0.866 0.0 0.0 0
M  V30 17 C -0.866 -1.9999 0.0 0
M  V30 18 C -1.732 -0.4999 0.0 0
M  V30 19 C -1.732 -1.4999 0.0 0
M  V30 20 C -1.0739 -2.9781 0.0 0
M  V30 21 N -2.4751 -2.1691 0.0 0
M  V30 22 C -2.0684 -3.0826 0.0 0
M  V30 23 C -0.4048 -3.7212 0.0 0
M  V30 24 C -3.4533 -1.9612 0.0 0
M  V30 25 C -2.5684 -3.9487 0.0 0
M  V30 26 C -4.1224 -2.7043 0.0 0
M  V30 27 C -5.1006 -2.4964 0.0 0
M  V30 28 C -3.8134 -3.6554 0.0 0
M  V30 29 C -5.7697 -3.2395 0.0 0
M  V30 30 C -4.4825 -4.3985 0.0 0
M  V30 31 C -5.4607 -4.1906 0.0 0
M  V30 32 C -6.1298 -4.9337 0.0 0
M  V30 33 C -7.108 -4.7258 0.0 0
M  V30 34 C -5.8208 -5.8848 0.0 0
M  V30 35 C -7.7771 -5.469 0.0 0
M  V30 36 C -6.4899 -6.6279 0.0 0
M  V30 37 C -7.4681 -6.42 0.0 0
M  V30 END ATOM
M  V30 BEGIN BOND
M  V30 1 1 1 2
M  V30 2 2 2 3
M  V30 3 1 2 4
M  V30 4 1 3 5
M  V30 5 1 3 6
M  V30 6 2 4 7
M  V30 7 1 4 8
M  V30 8 2 6 9
M  V30 9 1 8 10
M  V30 10 1 8 11 CFG=1
M  V30 11 1 10 12
M  V30 12 2 12 13
M  V30 13 1 12 14
M  V30 14 2 14 15
M  V30 15 1 14 16
M  V30 16 1 15 17
M  V30 17 2 16 18
M  V30 18 2 17 19
M  V30 19 1 17 20
M  V30 20 1 19 21
M  V30 21 2 20 22
M  V30 22 1 20 23
M  V30 23 1 21 24
M  V30 24 1 22 25
M  V30 25 1 24 26
M  V30 26 2 26 27
M  V30 27 1 26 28
M  V30 28 1 27 29
M  V30 29 2 28 30
M  V30 30 2 29 31
M  V30 31 1 31 32
M  V30 32 2 32 33
M  V30 33 1 32 34
M  V30 34 1 33 35
M  V30 35 2 34 36
M  V30 36 2 35 37
M  V30 37 1 7 9
M  V30 38 1 18 19
M  V30 39 1 21 22
M  V30 40 1 30 31
M  V30 41 1 36 37
M  V30 END BOND
M  V30 BEGIN COLLECTION
M  V30 MDLV30/STEABS ATOMS=(1 8)
M  V30 END COLLECTION
M  V30 END CTAB
M  END
>  <Molecule ChEMBL ID>
CHEMBL3695891

>  <Smiles>
Cc1c(C)n(Cc2ccc(-c3ccccc3)cc2)c2ccc(C(=O)N[C@@H](C)c3cccc(F)c3Cl)cc12

>  <IC50_nM>
4

>  <Assay Description>
Lanthascreen Competitive Binding Assay: The assay was performed according to manufacturer protocol. A mixture of nM GST-PPARG-LBD, 5 nM Tb-GST-antibody, 5 nM Fluormone Pan-PPAR Green, and serial dilutions of the experimental compound, beginning at 10 ׬M downwards, was added to wells of black 384-well low-volume plates (Greiner) to a total volume of 18 ׬L. All dilutions were made in TR-FRET assay buffer C. DMSO at 2% final concentration was used as a no-ligand control. Experiment was performed in triplicate, and incubated for 2 hours in the dark prior to assay read in Perkin Elmer ViewLux ultra HTS microplate reader. FRET signal was measured by excitation at 340 nm and emission at 520 nm for fluorescein and 490 nm for terbium. Fold change over DMSO was calculated using GraphPad Prism Software (La Jolla, Calif.) by calculating 520 nm/490 nm ratio. Graphs were plotted as fold change of FRET signal for compound treatment over DMSO-only control.

$$$$
CHEMBL445921
Actelion Java MolfileCreator 2.0

  0  0  0  0  0  0              0 V3000
M  V30 BEGIN CTAB
M  V30 COUNTS 40 43 0 0 0
M  V30 BEGIN ATOM
M  V30 1 F 8.6459 -0.929 0.0 0
M  V30 2 C 7.9027 -0.2599 0.0 0
M  V30 3 F 7.2336 -1.003 0.0 0
M  V30 4 F 7.1596 0.4092 0.0 0
M  V30 5 O 8.5719 0.4832 0.0 0
M  V30 6 C 8.2628 1.4342 0.0 0
M  V30 7 C 7.2847 1.6422 0.0 0
M  V30 8 C 8.932 2.1774 0.0 0
M  V30 9 C 6.9757 2.5932 0.0 0
M  V30 10 C 8.623 3.1284 0.0 0
M  V30 11 C 7.6448 3.3364 0.0 0
M  V30 12 C 6.0621 2.9999 0.0 0
M  V30 13 N 7.1448 4.2024 0.0 0
M  V30 14 C 6.1667 3.9945 0.0 0
M  V30 15 C 5.1961 2.4999 0.0 0
M  V30 16 C 7.5515 5.1159 0.0 0
M  V30 17 C 5.4235 4.6636 0.0 0
M  V30 18 C 5.1961 1.4999 0.0 0
M  V30 19 O 8.5461 5.2205 0.0 0
M  V30 20 C 6.9638 5.9249 0.0 0
M  V30 21 C 4.3301 1.0 0.0 0
M  V30 22 C 6.0621 0.9999 0.0 0
M  V30 23 C 7.3705 6.8385 0.0 0
M  V30 24 C 5.9692 5.8204 0.0 0
M  V30 25 C 4.3301 0.0 0.0 0
M  V30 26 C 6.0621 0.0 0.0 0
M  V30 27 C 6.7827 7.6475 0.0 0
M  V30 28 C 5.3814 6.6294 0.0 0
M  V30 29 O 3.4641 -0.5 0.0 0
M  V30 30 C 5.1961 -0.5 0.0 0
M  V30 31 C 5.7882 7.543 0.0 0
M  V30 32 C 2.598 0.0 0.0 0 CFG=2
M  V30 33 O 5.2004 8.352 0.0 0
M  V30 34 C 2.598 1.0 0.0 0
M  V30 35 C 1.732 -0.5 0.0 0
M  V30 36 C 4.2059 8.2475 0.0 0
M  V30 37 O 3.4641 1.4999 0.0 0
M  V30 38 O 1.732 1.5 0.0 0
M  V30 39 C 0.866 0.0 0.0 0
M  V30 40 C 0.0 -0.5 0.0 0
M  V30 END ATOM
M  V30 BEGIN BOND
M  V30 1 1 1 2
M  V30 2 1 2 3
M  V30 3 1 2 4
M  V30 4 1 2 5
M  V30 5 1 5 6
M  V30 6 2 6 7
M  V30 7 1 6 8
M  V30 8 1 7 9
M  V30 9 2 8 10
M  V30 10 2 9 11
M  V30 11 1 9 12
M  V30 12 1 11 13
M  V30 13 2 12 14
M  V30 14 1 12 15
M  V30 15 1 13 16
M  V30 16 1 14 17
M  V30 17 1 15 18
M  V30 18 2 16 19
M  V30 19 1 16 20
M  V30 20 2 18 21
M  V30 21 1 18 22
M  V30 22 2 20 23
M  V30 23 1 20 24
M  V30 24 1 21 25
M  V30 25 2 22 26
M  V30 26 1 23 27
M  V30 27 2 24 28
M  V30 28 1 25 29
M  V30 29 2 25 30
M  V30 30 2 27 31
M  V30 31 1 32 29 CFG=1
M  V30 32 1 31 33
M  V30 33 1 32 34
M  V30 34 1 32 35
M  V30 35 1 33 36
M  V30 36 2 34 37
M  V30 37 1 34 38
M  V30 38 1 35 39
M  V30 39 1 39 40
M  V30 40 1 10 11
M  V30 41 1 13 14
M  V30 42 1 26 30
M  V30 43 1 28 31
M  V30 END BOND
M  V30 BEGIN COLLECTION
M  V30 MDLV30/STERAC1 ATOMS=(1 32)
M  V30 END COLLECTION
M  V30 END CTAB
M  END
>  <Molecule ChEMBL ID>
CHEMBL445921

>  <Smiles>
CCCC(Oc1cccc(Cc2c(C)n(C(=O)c3ccc(OC)cc3)c3ccc(OC(F)(F)F)cc23)c1)C(=O)O

>  <IC50_nM>
4

>  <Assay Description>
In vitro inhibition of human Peroxisome proliferator activated receptor gamma

$$$$
CHEMBL3695910
Actelion Java MolfileCreator 2.0

  0  0  0  0  0  0              0 V3000
M  V30 BEGIN CTAB
M  V30 COUNTS 37 41 0 0 0
M  V30 BEGIN ATOM
M  V30 1 O 4.6457 5.2326 0.0 0
M  V30 2 C 5.3148 4.4895 0.0 0
M  V30 3 O 5.0058 3.5384 0.0 0
M  V30 4 C 6.293 4.6974 0.0 0
M  V30 5 C 6.9621 3.9542 0.0 0
M  V30 6 C 6.602 5.6484 0.0 0
M  V30 7 C 7.9402 4.1621 0.0 0
M  V30 8 C 7.5801 5.8563 0.0 0
M  V30 9 C 8.6094 3.419 0.0 0
M  V30 10 C 8.2493 5.1132 0.0 0
M  V30 11 C 8.3003 2.4679 0.0 0
M  V30 12 C 9.5875 3.6269 0.0 0
M  V30 13 C 8.9695 1.7248 0.0 0
M  V30 14 C 7.3222 2.26 0.0 0
M  V30 15 C 10.2566 2.8838 0.0 0
M  V30 16 C 9.9476 1.9327 0.0 0
M  V30 17 N 7.0132 1.309 0.0 0
M  V30 18 C 6.0621 0.9999 0.0 0
M  V30 19 C 7.601 0.5 0.0 0
M  V30 20 C 6.0621 0.0 0.0 0
M  V30 21 C 5.1961 1.4999 0.0 0
M  V30 22 C 7.0132 -0.309 0.0 0
M  V30 23 C 5.1961 -0.5 0.0 0
M  V30 24 C 4.3301 0.9999 0.0 0
M  V30 25 C 4.3301 0.0 0.0 0
M  V30 26 C 3.4641 -0.5 0.0 0
M  V30 27 O 3.4641 -1.5 0.0 0
M  V30 28 N 2.598 0.0 0.0 0
M  V30 29 C 1.732 -0.5 0.0 0 CFG=1
M  V30 30 C 1.732 -1.5 0.0 0
M  V30 31 C 0.866 0.0 0.0 0
M  V30 32 C 0.866 -1.9999 0.0 0
M  V30 33 C 2.598 -2.0 0.0 0
M  V30 34 C 0.0 -0.5 0.0 0
M  V30 35 C 0.866 -2.9999 0.0 0
M  V30 36 C 2.598 -3.0 0.0 0
M  V30 37 C 1.732 -3.5 0.0 0
M  V30 END ATOM
M  V30 BEGIN BOND
M  V30 1 2 1 2
M  V30 2 1 2 3
M  V30 3 1 2 4
M  V30 4 2 4 5
M  V30 5 1 4 6
M  V30 6 1 5 7
M  V30 7 2 6 8
M  V30 8 1 7 9
M  V30 9 2 7 10
M  V30 10 2 9 11
M  V30 11 1 9 12
M  V30 12 1 11 13
M  V30 13 1 11 14
M  V30 14 2 12 15
M  V30 15 2 13 16
M  V30 16 1 14 17
M  V30 17 1 17 18
M  V30 18 1 17 19
M  V30 19 2 18 20
M  V30 20 1 18 21
M  V30 21 2 19 22
M  V30 22 1 20 23
M  V30 23 2 21 24
M  V30 24 2 23 25
M  V30 25 1 25 26
M  V30 26 2 26 27
M  V30 27 1 26 28
M  V30 28 1 29 28 CFG=1
M  V30 29 1 29 30
M  V30 30 1 29 31
M  V30 31 2 30 32
M  V30 32 1 30 33
M  V30 33 1 31 34
M  V30 34 1 32 35
M  V30 35 2 33 36
M  V30 36 2 35 37
M  V30 37 1 8 10
M  V30 38 1 15 16
M  V30 39 1 20 22
M  V30 40 1 24 25
M  V30 41 1 36 37
M  V30 END BOND
M  V30 BEGIN COLLECTION
M  V30 MDLV30/STEABS ATOMS=(1 29)
M  V30 END COLLECTION
M  V30 END CTAB
M  END
>  <Molecule ChEMBL ID>
CHEMBL3695910

>  <Smiles>
CC[C@@H](NC(=O)c1ccc2c(ccn2Cc2ccccc2-c2cccc(C(=O)O)c2)c1)c1ccccc1

>  <IC50_nM>
4

>  <Assay Description>
Lanthascreen Competitive Binding Assay: The assay was performed according to manufacturer protocol. A mixture of nM GST-PPARG-LBD, 5 nM Tb-GST-antibody, 5 nM Fluormone Pan-PPAR Green, and serial dilutions of the experimental compound, beginning at 10 ׬M downwards, was added to wells of black 384-well low-volume plates (Greiner) to a total volume of 18 ׬L. All dilutions were made in TR-FRET assay buffer C. DMSO at 2% final concentration was used as a no-ligand control. Experiment was performed in triplicate, and incubated for 2 hours in the dark prior to assay read in Perkin Elmer ViewLux ultra HTS microplate reader. FRET signal was measured by excitation at 340 nm and emission at 520 nm for fluorescein and 490 nm for terbium. Fold change over DMSO was calculated using GraphPad Prism Software (La Jolla, Calif.) by calculating 520 nm/490 nm ratio. Graphs were plotted as fold change of FRET signal for compound treatment over DMSO-only control.

$$$$
CHEMBL3695840
Actelion Java MolfileCreator 2.0

  0  0  0  0  0  0              0 V3000
M  V30 BEGIN CTAB
M  V30 COUNTS 38 42 0 0 0
M  V30 BEGIN ATOM
M  V30 1 O 11.8592 -3.5669 0.0 0
M  V30 2 C 10.8811 -3.7748 0.0 0
M  V30 3 O 10.212 -3.0316 0.0 0
M  V30 4 C 10.5721 -4.7258 0.0 0
M  V30 5 C 9.5939 -4.9337 0.0 0
M  V30 6 C 11.2412 -5.469 0.0 0
M  V30 7 C 8.9248 -4.1906 0.0 0
M  V30 8 C 9.2849 -5.8848 0.0 0
M  V30 9 C 10.9322 -6.42 0.0 0
M  V30 10 C 9.2338 -3.2395 0.0 0
M  V30 11 C 7.9466 -4.3985 0.0 0
M  V30 12 C 9.954 -6.6279 0.0 0
M  V30 13 C 8.5647 -2.4964 0.0 0
M  V30 14 C 7.2775 -3.6554 0.0 0
M  V30 15 C 7.5865 -2.7043 0.0 0
M  V30 16 C 6.9174 -1.9612 0.0 0
M  V30 17 N 5.9392 -2.1691 0.0 0
M  V30 18 C 5.1961 -1.4999 0.0 0
M  V30 19 C 5.5325 -3.0826 0.0 0
M  V30 20 C 4.3301 -1.9999 0.0 0
M  V30 21 C 5.1961 -0.4999 0.0 0
M  V30 22 C 4.538 -2.9781 0.0 0
M  V30 23 C 6.0325 -3.9487 0.0 0
M  V30 24 C 3.4641 -1.5 0.0 0
M  V30 25 C 4.3301 0.0 0.0 0
M  V30 26 C 3.8689 -3.7212 0.0 0
M  V30 27 C 3.4641 -0.5 0.0 0
M  V30 28 C 2.598 0.0 0.0 0
M  V30 29 O 2.598 1.0 0.0 0
M  V30 30 N 1.732 -0.5 0.0 0
M  V30 31 C 0.866 0.0 0.0 0
M  V30 32 C 0.0 -0.5 0.0 0
M  V30 33 C -0.866 0.0 0.0 0
M  V30 34 C 0.0 -1.4999 0.0 0
M  V30 35 C -1.732 -0.4999 0.0 0
M  V30 36 C -0.866 -1.9999 0.0 0
M  V30 37 C -1.732 -1.4999 0.0 0
M  V30 38 C -2.598 -1.9999 0.0 0
M  V30 END ATOM
M  V30 BEGIN BOND
M  V30 1 2 1 2
M  V30 2 1 2 3
M  V30 3 1 2 4
M  V30 4 2 4 5
M  V30 5 1 4 6
M  V30 6 1 5 7
M  V30 7 1 5 8
M  V30 8 2 6 9
M  V30 9 2 7 10
M  V30 10 1 7 11
M  V30 11 2 8 12
M  V30 12 1 10 13
M  V30 13 2 11 14
M  V30 14 2 13 15
M  V30 15 1 15 16
M  V30 16 1 16 17
M  V30 17 1 17 18
M  V30 18 1 17 19
M  V30 19 2 18 20
M  V30 20 1 18 21
M  V30 21 2 19 22
M  V30 22 1 19 23
M  V30 23 1 20 24
M  V30 24 2 21 25
M  V30 25 1 22 26
M  V30 26 2 24 27
M  V30 27 1 27 28
M  V30 28 2 28 29
M  V30 29 1 28 30
M  V30 30 1 30 31
M  V30 31 1 31 32
M  V30 32 2 32 33
M  V30 33 1 32 34
M  V30 34 1 33 35
M  V30 35 2 34 36
M  V30 36 2 35 37
M  V30 37 1 37 38
M  V30 38 1 9 12
M  V30 39 1 14 15
M  V30 40 1 20 22
M  V30 41 1 25 27
M  V30 42 1 36 37
M  V30 END BOND
M  V30 END CTAB
M  END
>  <Molecule ChEMBL ID>
CHEMBL3695840

>  <Smiles>
Cc1ccc(CNC(=O)c2ccc3c(c2)c(C)c(C)n3Cc2ccc(-c3ccccc3C(=O)O)cc2)cc1

>  <IC50_nM>
4

>  <Assay Description>
Lanthascreen Competitive Binding Assay: The assay was performed according to manufacturer protocol. A mixture of nM GST-PPARG-LBD, 5 nM Tb-GST-antibody, 5 nM Fluormone Pan-PPAR Green, and serial dilutions of the experimental compound, beginning at 10 ׬M downwards, was added to wells of black 384-well low-volume plates (Greiner) to a total volume of 18 ׬L. All dilutions were made in TR-FRET assay buffer C. DMSO at 2% final concentration was used as a no-ligand control. Experiment was performed in triplicate, and incubated for 2 hours in the dark prior to assay read in Perkin Elmer ViewLux ultra HTS microplate reader. FRET signal was measured by excitation at 340 nm and emission at 520 nm for fluorescein and 490 nm for terbium. Fold change over DMSO was calculated using GraphPad Prism Software (La Jolla, Calif.) by calculating 520 nm/490 nm ratio. Graphs were plotted as fold change of FRET signal for compound treatment over DMSO-only control.

$$$$
CHEMBL3699358
Actelion Java MolfileCreator 2.0

  0  0  0  0  0  0              0 V3000
M  V30 BEGIN CTAB
M  V30 COUNTS 38 42 0 0 0
M  V30 BEGIN ATOM
M  V30 1 O 11.8592 -3.5669 0.0 0
M  V30 2 C 10.8811 -3.7748 0.0 0
M  V30 3 O 10.212 -3.0316 0.0 0
M  V30 4 C 10.5721 -4.7258 0.0 0
M  V30 5 C 9.5939 -4.9337 0.0 0
M  V30 6 C 11.2412 -5.469 0.0 0
M  V30 7 C 8.9248 -4.1906 0.0 0
M  V30 8 C 9.2849 -5.8848 0.0 0
M  V30 9 C 10.9322 -6.42 0.0 0
M  V30 10 C 9.2338 -3.2395 0.0 0
M  V30 11 C 7.9466 -4.3985 0.0 0
M  V30 12 C 9.954 -6.6279 0.0 0
M  V30 13 C 8.5647 -2.4964 0.0 0
M  V30 14 C 7.2775 -3.6554 0.0 0
M  V30 15 C 7.5865 -2.7043 0.0 0
M  V30 16 C 6.9174 -1.9612 0.0 0
M  V30 17 N 5.9392 -2.1691 0.0 0
M  V30 18 C 5.1961 -1.4999 0.0 0
M  V30 19 C 5.5325 -3.0826 0.0 0
M  V30 20 C 4.3301 -1.9999 0.0 0
M  V30 21 C 5.1961 -0.4999 0.0 0
M  V30 22 C 4.538 -2.9781 0.0 0
M  V30 23 C 6.0325 -3.9487 0.0 0
M  V30 24 C 3.4641 -1.5 0.0 0
M  V30 25 C 4.3301 0.0 0.0 0
M  V30 26 C 3.8689 -3.7212 0.0 0
M  V30 27 C 3.4641 -0.5 0.0 0
M  V30 28 C 2.598 0.0 0.0 0
M  V30 29 O 2.598 1.0 0.0 0
M  V30 30 N 1.732 -0.5 0.0 0
M  V30 31 C 0.866 0.0 0.0 0 CFG=2
M  V30 32 C 0.866 1.0 0.0 0
M  V30 33 C 0.0 -0.5 0.0 0
M  V30 34 C 1.732 1.4999 0.0 0
M  V30 35 C 0.0 1.4999 0.0 0
M  V30 36 C 1.732 2.5 0.0 0
M  V30 37 C 0.0 2.5 0.0 0
M  V30 38 C 0.866 3.0 0.0 0
M  V30 END ATOM
M  V30 BEGIN BOND
M  V30 1 2 1 2
M  V30 2 1 2 3
M  V30 3 1 2 4
M  V30 4 2 4 5
M  V30 5 1 4 6
M  V30 6 1 5 7
M  V30 7 1 5 8
M  V30 8 2 6 9
M  V30 9 2 7 10
M  V30 10 1 7 11
M  V30 11 2 8 12
M  V30 12 1 10 13
M  V30 13 2 11 14
M  V30 14 2 13 15
M  V30 15 1 15 16
M  V30 16 1 16 17
M  V30 17 1 17 18
M  V30 18 1 17 19
M  V30 19 2 18 20
M  V30 20 1 18 21
M  V30 21 2 19 22
M  V30 22 1 19 23
M  V30 23 1 20 24
M  V30 24 2 21 25
M  V30 25 1 22 26
M  V30 26 2 24 27
M  V30 27 1 27 28
M  V30 28 2 28 29
M  V30 29 1 28 30
M  V30 30 1 30 31
M  V30 31 1 31 32
M  V30 32 1 31 33 CFG=1
M  V30 33 1 32 34
M  V30 34 1 32 35
M  V30 35 1 34 36
M  V30 36 1 35 37
M  V30 37 1 36 38
M  V30 38 1 9 12
M  V30 39 1 14 15
M  V30 40 1 20 22
M  V30 41 1 25 27
M  V30 42 1 37 38
M  V30 END BOND
M  V30 BEGIN COLLECTION
M  V30 MDLV30/STEABS ATOMS=(1 31)
M  V30 END COLLECTION
M  V30 END CTAB
M  END
>  <Molecule ChEMBL ID>
CHEMBL3699358

>  <Smiles>
Cc1c(C)n(Cc2ccc(-c3ccccc3C(=O)O)cc2)c2ccc(C(=O)N[C@@H](C)C3CCCCC3)cc12

>  <IC50_nM>
4

>  <Assay Description>
Lanthascreen Competitive Binding Assay: The assay was performed according to manufacturer protocol. A mixture of nM GST-PPARG-LBD, 5 nM Tb-GST-antibody, 5 nM Fluormone Pan-PPAR Green, and serial dilutions of the experimental compound, beginning at 10 ׬M downwards, was added to wells of black 384-well low-volume plates (Greiner) to a total volume of 18 ׬L. All dilutions were made in TR-FRET assay buffer C. DMSO at 2% final concentration was used as a no-ligand control. Experiment was performed in triplicate, and incubated for 2 hours in the dark prior to assay read in Perkin Elmer ViewLux ultra HTS microplate reader. FRET signal was measured by excitation at 340 nm and emission at 520 nm for fluorescein and 490 nm for terbium. Fold change over DMSO was calculated using GraphPad Prism Software (La Jolla, Calif.) by calculating 520 nm/490 nm ratio. Graphs were plotted as fold change of FRET signal for compound treatment over DMSO-only control.

$$$$
CHEMBL549746
Actelion Java MolfileCreator 2.0

  0  0  0  0  0  0              0 V3000
M  V30 BEGIN CTAB
M  V30 COUNTS 38 41 0 0 0
M  V30 BEGIN ATOM
M  V30 1 Cl 6.0664 -5.852 0.0 0
M  V30 2 C 6.6542 -5.043 0.0 0
M  V30 3 C 7.6487 -5.1475 0.0 0
M  V30 4 C 6.2475 -4.1294 0.0 0
M  V30 5 C 8.2365 -4.3385 0.0 0
M  V30 6 C 6.8353 -3.3204 0.0 0
M  V30 7 C 7.8298 -3.4249 0.0 0
M  V30 8 C 8.4176 -2.6159 0.0 0
M  V30 9 O 9.4121 -2.7205 0.0 0
M  V30 10 C 8.0108 -1.7024 0.0 0
M  V30 11 C 8.5108 -0.8364 0.0 0
M  V30 12 C 7.0327 -1.4945 0.0 0
M  V30 13 C 7.8417 -0.0932 0.0 0
M  V30 14 C 9.489 -0.6284 0.0 0
M  V30 15 N 6.9282 -0.5 0.0 0
M  V30 16 C 6.2895 -2.1636 0.0 0
M  V30 17 C 8.1507 0.8577 0.0 0
M  V30 18 C 9.798 0.3225 0.0 0
M  V30 19 C 6.0621 0.0 0.0 0
M  V30 20 C 9.1289 1.0657 0.0 0
M  V30 21 C 5.1961 -0.5 0.0 0
M  V30 22 O 9.4379 2.0167 0.0 0
M  V30 23 C 4.3301 0.0 0.0 0
M  V30 24 C 5.1961 -1.4999 0.0 0
M  V30 25 C 8.7687 2.7599 0.0 0
M  V30 26 C 3.4641 -0.5 0.0 0
M  V30 27 C 4.3301 -1.9999 0.0 0
M  V30 28 F 8.0256 2.0907 0.0 0
M  V30 29 F 8.0996 3.503 0.0 0
M  V30 30 F 9.5119 3.429 0.0 0
M  V30 31 O 2.598 0.0 0.0 0
M  V30 32 C 3.4641 -1.4999 0.0 0
M  V30 33 C 1.732 -0.5 0.0 0 CFG=2
M  V30 34 C 1.732 -1.5 0.0 0
M  V30 35 C 0.866 0.0 0.0 0
M  V30 36 O 0.866 -2.0 0.0 0
M  V30 37 O 2.598 -1.9999 0.0 0
M  V30 38 C 0.0 -0.5 0.0 0
M  V30 END ATOM
M  V30 BEGIN BOND
M  V30 1 1 1 2
M  V30 2 2 2 3
M  V30 3 1 2 4
M  V30 4 1 3 5
M  V30 5 2 4 6
M  V30 6 2 5 7
M  V30 7 1 7 8
M  V30 8 2 8 9
M  V30 9 1 8 10
M  V30 10 1 10 11
M  V30 11 2 10 12
M  V30 12 2 11 13
M  V30 13 1 11 14
M  V30 14 1 12 15
M  V30 15 1 12 16
M  V30 16 1 13 17
M  V30 17 2 14 18
M  V30 18 1 15 19
M  V30 19 2 17 20
M  V30 20 1 19 21
M  V30 21 1 20 22
M  V30 22 2 21 23
M  V30 23 1 21 24
M  V30 24 1 22 25
M  V30 25 1 23 26
M  V30 26 2 24 27
M  V30 27 1 25 28
M  V30 28 1 25 29
M  V30 29 1 25 30
M  V30 30 1 26 31
M  V30 31 2 26 32
M  V30 32 1 33 31 CFG=3
M  V30 33 1 33 34
M  V30 34 1 33 35
M  V30 35 2 34 36
M  V30 36 1 34 37
M  V30 37 1 35 38
M  V30 38 1 6 7
M  V30 39 1 13 15
M  V30 40 1 18 20
M  V30 41 1 27 32
M  V30 END BOND
M  V30 BEGIN COLLECTION
M  V30 MDLV30/STEABS ATOMS=(1 33)
M  V30 END COLLECTION
M  V30 END CTAB
M  END
>  <Molecule ChEMBL ID>
CHEMBL549746

>  <Smiles>
CC[C@H](Oc1cccc(Cn2c(C)c(C(=O)c3ccc(Cl)cc3)c3ccc(OC(F)(F)F)cc32)c1)C(=O)O

>  <IC50_nM>
4

>  <Assay Description>
Inhibition of human PPARgamma receptor by scintillation proximity assay

$$$$
CHEMBL3695837
Actelion Java MolfileCreator 2.0

  0  0  0  0  0  0              0 V3000
M  V30 BEGIN CTAB
M  V30 COUNTS 39 43 0 0 0
M  V30 BEGIN ATOM
M  V30 1 O 11.8592 -3.5669 0.0 0
M  V30 2 C 10.8811 -3.7748 0.0 0
M  V30 3 O 10.212 -3.0316 0.0 0
M  V30 4 C 10.5721 -4.7258 0.0 0
M  V30 5 C 9.5939 -4.9337 0.0 0
M  V30 6 C 11.2412 -5.469 0.0 0
M  V30 7 C 8.9248 -4.1906 0.0 0
M  V30 8 C 9.2849 -5.8848 0.0 0
M  V30 9 C 10.9322 -6.42 0.0 0
M  V30 10 C 9.2338 -3.2395 0.0 0
M  V30 11 C 7.9466 -4.3985 0.0 0
M  V30 12 C 9.954 -6.6279 0.0 0
M  V30 13 C 8.5647 -2.4964 0.0 0
M  V30 14 C 7.2775 -3.6554 0.0 0
M  V30 15 C 7.5865 -2.7043 0.0 0
M  V30 16 C 6.9174 -1.9612 0.0 0
M  V30 17 N 5.9392 -2.1691 0.0 0
M  V30 18 C 5.1961 -1.4999 0.0 0
M  V30 19 C 5.5325 -3.0826 0.0 0
M  V30 20 C 4.3301 -1.9999 0.0 0
M  V30 21 C 5.1961 -0.4999 0.0 0
M  V30 22 C 4.538 -2.9781 0.0 0
M  V30 23 C 6.0325 -3.9487 0.0 0
M  V30 24 C 3.4641 -1.5 0.0 0
M  V30 25 C 4.3301 0.0 0.0 0
M  V30 26 C 3.8689 -3.7212 0.0 0
M  V30 27 C 3.4641 -0.5 0.0 0
M  V30 28 C 2.598 0.0 0.0 0
M  V30 29 O 2.598 1.0 0.0 0
M  V30 30 N 1.732 -0.5 0.0 0
M  V30 31 C 0.866 0.0 0.0 0
M  V30 32 C 0.0 -0.5 0.0 0
M  V30 33 C -0.866 0.0 0.0 0
M  V30 34 C 0.0 -1.4999 0.0 0
M  V30 35 C -1.732 -0.4999 0.0 0
M  V30 36 C -0.866 -1.9999 0.0 0
M  V30 37 O -2.598 0.0 0.0 0
M  V30 38 C -1.732 -1.4999 0.0 0
M  V30 39 C -3.4641 -0.4999 0.0 0
M  V30 END ATOM
M  V30 BEGIN BOND
M  V30 1 2 1 2
M  V30 2 1 2 3
M  V30 3 1 2 4
M  V30 4 2 4 5
M  V30 5 1 4 6
M  V30 6 1 5 7
M  V30 7 1 5 8
M  V30 8 2 6 9
M  V30 9 2 7 10
M  V30 10 1 7 11
M  V30 11 2 8 12
M  V30 12 1 10 13
M  V30 13 2 11 14
M  V30 14 2 13 15
M  V30 15 1 15 16
M  V30 16 1 16 17
M  V30 17 1 17 18
M  V30 18 1 17 19
M  V30 19 2 18 20
M  V30 20 1 18 21
M  V30 21 2 19 22
M  V30 22 1 19 23
M  V30 23 1 20 24
M  V30 24 2 21 25
M  V30 25 1 22 26
M  V30 26 2 24 27
M  V30 27 1 27 28
M  V30 28 2 28 29
M  V30 29 1 28 30
M  V30 30 1 30 31
M  V30 31 1 31 32
M  V30 32 2 32 33
M  V30 33 1 32 34
M  V30 34 1 33 35
M  V30 35 2 34 36
M  V30 36 1 35 37
M  V30 37 2 35 38
M  V30 38 1 37 39
M  V30 39 1 9 12
M  V30 40 1 14 15
M  V30 41 1 20 22
M  V30 42 1 25 27
M  V30 43 1 36 38
M  V30 END BOND
M  V30 END CTAB
M  END
>  <Molecule ChEMBL ID>
CHEMBL3695837

>  <Smiles>
COc1cccc(CNC(=O)c2ccc3c(c2)c(C)c(C)n3Cc2ccc(-c3ccccc3C(=O)O)cc2)c1

>  <IC50_nM>
4

>  <Assay Description>
Binding affinity to GST-tagged PPAR-gamma-LBD (unknown origin) after 2 hrs by Lantha screen assay using fluormone Pan-PPAR green probe

$$$$
CHEMBL3695830
Actelion Java MolfileCreator 2.0

  0  0  0  0  0  0              0 V3000
M  V30 BEGIN CTAB
M  V30 COUNTS 38 42 0 0 0
M  V30 BEGIN ATOM
M  V30 1 O 11.8592 -3.5669 0.0 0
M  V30 2 C 10.8811 -3.7748 0.0 0
M  V30 3 O 10.212 -3.0316 0.0 0
M  V30 4 C 10.5721 -4.7258 0.0 0
M  V30 5 C 9.5939 -4.9337 0.0 0
M  V30 6 C 11.2412 -5.469 0.0 0
M  V30 7 C 8.9248 -4.1906 0.0 0
M  V30 8 C 9.2849 -5.8848 0.0 0
M  V30 9 C 10.9322 -6.42 0.0 0
M  V30 10 C 9.2338 -3.2395 0.0 0
M  V30 11 C 7.9466 -4.3985 0.0 0
M  V30 12 C 9.954 -6.6279 0.0 0
M  V30 13 C 8.5647 -2.4964 0.0 0
M  V30 14 C 7.2775 -3.6554 0.0 0
M  V30 15 C 7.5865 -2.7043 0.0 0
M  V30 16 C 6.9174 -1.9612 0.0 0
M  V30 17 N 5.9392 -2.1691 0.0 0
M  V30 18 C 5.1961 -1.4999 0.0 0
M  V30 19 C 5.5325 -3.0826 0.0 0
M  V30 20 C 4.3301 -1.9999 0.0 0
M  V30 21 C 5.1961 -0.4999 0.0 0
M  V30 22 C 4.538 -2.9781 0.0 0
M  V30 23 C 6.0325 -3.9487 0.0 0
M  V30 24 C 3.4641 -1.5 0.0 0
M  V30 25 C 4.3301 0.0 0.0 0
M  V30 26 C 3.8689 -3.7212 0.0 0
M  V30 27 C 3.4641 -0.5 0.0 0
M  V30 28 C 2.598 0.0 0.0 0
M  V30 29 O 2.598 1.0 0.0 0
M  V30 30 N 1.732 -0.5 0.0 0
M  V30 31 C 0.866 0.0 0.0 0
M  V30 32 C 0.0 -0.5 0.0 0
M  V30 33 C -0.866 0.0 0.0 0
M  V30 34 C 0.0 -1.4999 0.0 0
M  V30 35 C -1.732 -0.4999 0.0 0
M  V30 36 C -0.866 -1.9999 0.0 0
M  V30 37 C -1.732 -1.4999 0.0 0
M  V30 38 N -2.598 -1.9999 0.0 0
M  V30 END ATOM
M  V30 BEGIN BOND
M  V30 1 2 1 2
M  V30 2 1 2 3
M  V30 3 1 2 4
M  V30 4 2 4 5
M  V30 5 1 4 6
M  V30 6 1 5 7
M  V30 7 1 5 8
M  V30 8 2 6 9
M  V30 9 2 7 10
M  V30 10 1 7 11
M  V30 11 2 8 12
M  V30 12 1 10 13
M  V30 13 2 11 14
M  V30 14 2 13 15
M  V30 15 1 15 16
M  V30 16 1 16 17
M  V30 17 1 17 18
M  V30 18 1 17 19
M  V30 19 2 18 20
M  V30 20 1 18 21
M  V30 21 2 19 22
M  V30 22 1 19 23
M  V30 23 1 20 24
M  V30 24 2 21 25
M  V30 25 1 22 26
M  V30 26 2 24 27
M  V30 27 1 27 28
M  V30 28 2 28 29
M  V30 29 1 28 30
M  V30 30 1 30 31
M  V30 31 1 31 32
M  V30 32 2 32 33
M  V30 33 1 32 34
M  V30 34 1 33 35
M  V30 35 2 34 36
M  V30 36 2 35 37
M  V30 37 1 37 38
M  V30 38 1 9 12
M  V30 39 1 14 15
M  V30 40 1 20 22
M  V30 41 1 25 27
M  V30 42 1 36 37
M  V30 END BOND
M  V30 END CTAB
M  END
>  <Molecule ChEMBL ID>
CHEMBL3695830

>  <Smiles>
Cc1c(C)n(Cc2ccc(-c3ccccc3C(=O)O)cc2)c2ccc(C(=O)NCc3ccc(N)cc3)cc12

>  <IC50_nM>
4

>  <Assay Description>
Lanthascreen Competitive Binding Assay: The assay was performed according to manufacturer protocol. A mixture of nM GST-PPARG-LBD, 5 nM Tb-GST-antibody, 5 nM Fluormone Pan-PPAR Green, and serial dilutions of the experimental compound, beginning at 10 ׬M downwards, was added to wells of black 384-well low-volume plates (Greiner) to a total volume of 18 ׬L. All dilutions were made in TR-FRET assay buffer C. DMSO at 2% final concentration was used as a no-ligand control. Experiment was performed in triplicate, and incubated for 2 hours in the dark prior to assay read in Perkin Elmer ViewLux ultra HTS microplate reader. FRET signal was measured by excitation at 340 nm and emission at 520 nm for fluorescein and 490 nm for terbium. Fold change over DMSO was calculated using GraphPad Prism Software (La Jolla, Calif.) by calculating 520 nm/490 nm ratio. Graphs were plotted as fold change of FRET signal for compound treatment over DMSO-only control.

$$$$
CHEMBL3695894
Actelion Java MolfileCreator 2.0

  0  0  0  0  0  0              0 V3000
M  V30 BEGIN CTAB
M  V30 COUNTS 43 47 0 0 0
M  V30 BEGIN ATOM
M  V30 1 F 3.3301 1.0 0.0 0
M  V30 2 C 4.3301 0.9999 0.0 0
M  V30 3 F 4.3301 1.9999 0.0 0
M  V30 4 F 5.3301 0.9999 0.0 0
M  V30 5 C 4.3301 0.0 0.0 0
M  V30 6 C 3.4641 -0.5 0.0 0
M  V30 7 C 5.1961 -0.5 0.0 0
M  V30 8 C 3.4641 -1.5 0.0 0
M  V30 9 C 2.598 0.0 0.0 0 CFG=2
M  V30 10 C 5.1961 -1.5 0.0 0
M  V30 11 C 4.3301 -2.0 0.0 0
M  V30 12 N 1.732 -0.5 0.0 0
M  V30 13 C 2.598 1.0 0.0 0
M  V30 14 C 4.3301 -3.0 0.0 0
M  V30 15 C 0.866 0.0 0.0 0
M  V30 16 F 5.3301 -3.0 0.0 0
M  V30 17 F 4.3301 -4.0 0.0 0
M  V30 18 F 3.3301 -3.0 0.0 0
M  V30 19 O 0.866 1.0 0.0 0
M  V30 20 C 0.0 -0.5 0.0 0
M  V30 21 C 0.0 -1.4999 0.0 0
M  V30 22 C -0.866 0.0 0.0 0
M  V30 23 C -0.866 -1.9999 0.0 0
M  V30 24 C -1.732 -0.4999 0.0 0
M  V30 25 C -1.732 -1.4999 0.0 0
M  V30 26 C -1.0739 -2.9781 0.0 0
M  V30 27 N -2.4751 -2.1691 0.0 0
M  V30 28 C -2.0684 -3.0826 0.0 0
M  V30 29 C -0.4048 -3.7212 0.0 0
M  V30 30 C -3.4533 -1.9612 0.0 0
M  V30 31 C -2.5684 -3.9487 0.0 0
M  V30 32 C -4.1224 -2.7043 0.0 0
M  V30 33 C -5.1006 -2.4964 0.0 0
M  V30 34 C -3.8134 -3.6554 0.0 0
M  V30 35 C -5.7697 -3.2395 0.0 0
M  V30 36 C -4.4825 -4.3985 0.0 0
M  V30 37 C -5.4607 -4.1906 0.0 0
M  V30 38 C -6.1298 -4.9337 0.0 0
M  V30 39 C -7.108 -4.7258 0.0 0
M  V30 40 C -5.8208 -5.8848 0.0 0
M  V30 41 C -7.7771 -5.469 0.0 0
M  V30 42 C -6.4899 -6.6279 0.0 0
M  V30 43 C -7.4681 -6.42 0.0 0
M  V30 END ATOM
M  V30 BEGIN BOND
M  V30 1 1 1 2
M  V30 2 1 2 3
M  V30 3 1 2 4
M  V30 4 1 2 5
M  V30 5 2 5 6
M  V30 6 1 5 7
M  V30 7 1 6 8
M  V30 8 1 6 9
M  V30 9 2 7 10
M  V30 10 2 8 11
M  V30 11 1 9 12
M  V30 12 1 9 13 CFG=3
M  V30 13 1 11 14
M  V30 14 1 12 15
M  V30 15 1 14 16
M  V30 16 1 14 17
M  V30 17 1 14 18
M  V30 18 2 15 19
M  V30 19 1 15 20
M  V30 20 2 20 21
M  V30 21 1 20 22
M  V30 22 1 21 23
M  V30 23 2 22 24
M  V30 24 2 23 25
M  V30 25 1 23 26
M  V30 26 1 25 27
M  V30 27 2 26 28
M  V30 28 1 26 29
M  V30 29 1 27 30
M  V30 30 1 28 31
M  V30 31 1 30 32
M  V30 32 2 32 33
M  V30 33 1 32 34
M  V30 34 1 33 35
M  V30 35 2 34 36
M  V30 36 2 35 37
M  V30 37 1 37 38
M  V30 38 2 38 39
M  V30 39 1 38 40
M  V30 40 1 39 41
M  V30 41 2 40 42
M  V30 42 2 41 43
M  V30 43 1 10 11
M  V30 44 1 24 25
M  V30 45 1 27 28
M  V30 46 1 36 37
M  V30 47 1 42 43
M  V30 END BOND
M  V30 BEGIN COLLECTION
M  V30 MDLV30/STEABS ATOMS=(1 9)
M  V30 END COLLECTION
M  V30 END CTAB
M  END
>  <Molecule ChEMBL ID>
CHEMBL3695894

>  <Smiles>
Cc1c(C)n(Cc2ccc(-c3ccccc3)cc2)c2ccc(C(=O)N[C@H](C)c3cc(C(F)(F)F)ccc3C(F)(F)F)cc12

>  <IC50_nM>
4

>  <Assay Description>
Lanthascreen Competitive Binding Assay: The assay was performed according to manufacturer protocol. A mixture of nM GST-PPARG-LBD, 5 nM Tb-GST-antibody, 5 nM Fluormone Pan-PPAR Green, and serial dilutions of the experimental compound, beginning at 10 ׬M downwards, was added to wells of black 384-well low-volume plates (Greiner) to a total volume of 18 ׬L. All dilutions were made in TR-FRET assay buffer C. DMSO at 2% final concentration was used as a no-ligand control. Experiment was performed in triplicate, and incubated for 2 hours in the dark prior to assay read in Perkin Elmer ViewLux ultra HTS microplate reader. FRET signal was measured by excitation at 340 nm and emission at 520 nm for fluorescein and 490 nm for terbium. Fold change over DMSO was calculated using GraphPad Prism Software (La Jolla, Calif.) by calculating 520 nm/490 nm ratio. Graphs were plotted as fold change of FRET signal for compound treatment over DMSO-only control.

$$$$
CHEMBL3695809
Actelion Java MolfileCreator 2.0

  0  0  0  0  0  0              0 V3000
M  V30 BEGIN CTAB
M  V30 COUNTS 37 41 0 0 0
M  V30 BEGIN ATOM
M  V30 1 O 4.6457 5.2326 0.0 0
M  V30 2 C 5.3148 4.4895 0.0 0
M  V30 3 O 5.0058 3.5384 0.0 0
M  V30 4 C 6.293 4.6974 0.0 0
M  V30 5 C 6.9621 3.9542 0.0 0
M  V30 6 C 6.602 5.6484 0.0 0
M  V30 7 C 7.9402 4.1621 0.0 0
M  V30 8 C 7.5801 5.8563 0.0 0
M  V30 9 C 8.6094 3.419 0.0 0
M  V30 10 C 8.2493 5.1132 0.0 0
M  V30 11 C 8.3003 2.4679 0.0 0
M  V30 12 C 9.5875 3.6269 0.0 0
M  V30 13 C 8.9695 1.7248 0.0 0
M  V30 14 C 7.3222 2.26 0.0 0
M  V30 15 C 10.2566 2.8838 0.0 0
M  V30 16 C 9.9476 1.9327 0.0 0
M  V30 17 N 7.0132 1.309 0.0 0
M  V30 18 C 6.0621 0.9999 0.0 0
M  V30 19 C 7.601 0.5 0.0 0
M  V30 20 C 6.0621 0.0 0.0 0
M  V30 21 C 5.1961 1.4999 0.0 0
M  V30 22 C 7.0132 -0.309 0.0 0
M  V30 23 C 5.1961 -0.5 0.0 0
M  V30 24 C 4.3301 0.9999 0.0 0
M  V30 25 C 4.3301 0.0 0.0 0
M  V30 26 C 3.4641 -0.5 0.0 0
M  V30 27 O 3.4641 -1.5 0.0 0
M  V30 28 N 2.598 0.0 0.0 0
M  V30 29 C 1.732 -0.5 0.0 0 CFG=2
M  V30 30 C 1.732 -1.5 0.0 0
M  V30 31 C 0.866 0.0 0.0 0
M  V30 32 C 0.866 -1.9999 0.0 0
M  V30 33 C 2.598 -2.0 0.0 0
M  V30 34 C 0.0 -0.5 0.0 0
M  V30 35 C 0.866 -2.9999 0.0 0
M  V30 36 C 2.598 -3.0 0.0 0
M  V30 37 C 1.732 -3.5 0.0 0
M  V30 END ATOM
M  V30 BEGIN BOND
M  V30 1 2 1 2
M  V30 2 1 2 3
M  V30 3 1 2 4
M  V30 4 2 4 5
M  V30 5 1 4 6
M  V30 6 1 5 7
M  V30 7 2 6 8
M  V30 8 1 7 9
M  V30 9 2 7 10
M  V30 10 2 9 11
M  V30 11 1 9 12
M  V30 12 1 11 13
M  V30 13 1 11 14
M  V30 14 2 12 15
M  V30 15 2 13 16
M  V30 16 1 14 17
M  V30 17 1 17 18
M  V30 18 1 17 19
M  V30 19 2 18 20
M  V30 20 1 18 21
M  V30 21 2 19 22
M  V30 22 1 20 23
M  V30 23 2 21 24
M  V30 24 2 23 25
M  V30 25 1 25 26
M  V30 26 2 26 27
M  V30 27 1 26 28
M  V30 28 1 29 28 CFG=3
M  V30 29 1 29 30
M  V30 30 1 29 31
M  V30 31 2 30 32
M  V30 32 1 30 33
M  V30 33 1 31 34
M  V30 34 1 32 35
M  V30 35 2 33 36
M  V30 36 2 35 37
M  V30 37 1 8 10
M  V30 38 1 15 16
M  V30 39 1 20 22
M  V30 40 1 24 25
M  V30 41 1 36 37
M  V30 END BOND
M  V30 BEGIN COLLECTION
M  V30 MDLV30/STERAC1 ATOMS=(1 29)
M  V30 END COLLECTION
M  V30 END CTAB
M  END
>  <Molecule ChEMBL ID>
CHEMBL3695809

>  <Smiles>
CCC(NC(=O)c1ccc2c(ccn2Cc2ccccc2-c2cccc(C(=O)O)c2)c1)c1ccccc1

>  <IC50_nM>
4

>  <Assay Description>
Lanthascreen Competitive Binding Assay: The assay was performed according to manufacturer protocol. A mixture of nM GST-PPARG-LBD, 5 nM Tb-GST-antibody, 5 nM Fluormone Pan-PPAR Green, and serial dilutions of the experimental compound, beginning at 10 ׬M downwards, was added to wells of black 384-well low-volume plates (Greiner) to a total volume of 18 ׬L. All dilutions were made in TR-FRET assay buffer C. DMSO at 2% final concentration was used as a no-ligand control. Experiment was performed in triplicate, and incubated for 2 hours in the dark prior to assay read in Perkin Elmer ViewLux ultra HTS microplate reader. FRET signal was measured by excitation at 340 nm and emission at 520 nm for fluorescein and 490 nm for terbium. Fold change over DMSO was calculated using GraphPad Prism Software (La Jolla, Calif.) by calculating 520 nm/490 nm ratio. Graphs were plotted as fold change of FRET signal for compound treatment over DMSO-only control.

$$$$
CHEMBL509236
Actelion Java MolfileCreator 2.0

  0  0  0  0  0  0              0 V3000
M  V30 BEGIN CTAB
M  V30 COUNTS 35 38 0 0 0
M  V30 BEGIN ATOM
M  V30 1 F 6.0621 -1.9999 0.0 0
M  V30 2 C 5.1961 -1.4999 0.0 0
M  V30 3 C 5.1961 -0.5 0.0 0
M  V30 4 C 4.3301 -1.9999 0.0 0
M  V30 5 C 4.3301 0.0 0.0 0
M  V30 6 C 6.0621 0.0 0.0 0
M  V30 7 C 3.4641 -1.5 0.0 0
M  V30 8 C 3.4641 -0.5 0.0 0
M  V30 9 N 6.0621 0.9999 0.0 0
M  V30 10 O 2.598 0.0 0.0 0
M  V30 11 C 6.8711 1.5877 0.0 0
M  V30 12 C 5.2531 1.5877 0.0 0
M  V30 13 C 1.732 -0.5 0.0 0 CFG=2
M  V30 14 N 7.8493 1.3798 0.0 0
M  V30 15 C 6.5621 2.5388 0.0 0
M  V30 16 C 5.5621 2.5388 0.0 0
M  V30 17 C 4.3021 1.2787 0.0 0
M  V30 18 C 0.866 0.0 0.0 0
M  V30 19 C 1.732 -1.5 0.0 0
M  V30 20 C 8.5184 2.123 0.0 0
M  V30 21 C 7.2313 3.2819 0.0 0
M  V30 22 C 4.9743 3.3478 0.0 0
M  V30 23 O 0.866 1.0 0.0 0
M  V30 24 O 0.0 -0.5 0.0 0
M  V30 25 C 8.2094 3.074 0.0 0
M  V30 26 C 9.4966 1.9151 0.0 0
M  V30 27 O 5.3811 4.2614 0.0 0
M  V30 28 C 3.9798 3.2433 0.0 0
M  V30 29 C 3.392 4.0523 0.0 0
M  V30 30 C 3.5731 2.3297 0.0 0
M  V30 31 C 2.3975 3.9478 0.0 0
M  V30 32 C 2.5786 2.2252 0.0 0
M  V30 33 C 1.9908 3.0342 0.0 0
M  V30 34 O 0.9963 2.9297 0.0 0
M  V30 35 C 0.5895 2.0161 0.0 0
M  V30 END ATOM
M  V30 BEGIN BOND
M  V30 1 1 1 2
M  V30 2 2 2 3
M  V30 3 1 2 4
M  V30 4 1 3 5
M  V30 5 1 3 6
M  V30 6 2 4 7
M  V30 7 2 5 8
M  V30 8 1 6 9
M  V30 9 1 8 10
M  V30 10 1 9 11
M  V30 11 1 9 12
M  V30 12 1 10 13
M  V30 13 2 11 14
M  V30 14 1 11 15
M  V30 15 2 12 16
M  V30 16 1 12 17
M  V30 17 1 13 18
M  V30 18 1 13 19 CFG=1
M  V30 19 1 14 20
M  V30 20 2 15 21
M  V30 21 1 16 22
M  V30 22 2 18 23
M  V30 23 1 18 24
M  V30 24 2 20 25
M  V30 25 1 20 26
M  V30 26 2 22 27
M  V30 27 1 22 28
M  V30 28 2 28 29
M  V30 29 1 28 30
M  V30 30 1 29 31
M  V30 31 2 30 32
M  V30 32 2 31 33
M  V30 33 1 33 34
M  V30 34 1 34 35
M  V30 35 1 7 8
M  V30 36 1 15 16
M  V30 37 1 21 25
M  V30 38 1 32 33
M  V30 END BOND
M  V30 BEGIN COLLECTION
M  V30 MDLV30/STEABS ATOMS=(1 13)
M  V30 END COLLECTION
M  V30 END CTAB
M  END
>  <Molecule ChEMBL ID>
CHEMBL509236

>  <Smiles>
COc1ccc(C(=O)c2c(C)n(Cc3cc(O[C@@H](C)C(=O)O)ccc3F)c3nc(C)ccc23)cc1

>  <IC50_nM>
4

>  <Assay Description>
Displacement of [3H]2AD-5075 from GST-tagged human PPARgamma receptor expressed in Escherichia coli BL21

$$$$
CHEMBL3695837
Actelion Java MolfileCreator 2.0

  0  0  0  0  0  0              0 V3000
M  V30 BEGIN CTAB
M  V30 COUNTS 39 43 0 0 0
M  V30 BEGIN ATOM
M  V30 1 O 11.8592 -3.5669 0.0 0
M  V30 2 C 10.8811 -3.7748 0.0 0
M  V30 3 O 10.212 -3.0316 0.0 0
M  V30 4 C 10.5721 -4.7258 0.0 0
M  V30 5 C 9.5939 -4.9337 0.0 0
M  V30 6 C 11.2412 -5.469 0.0 0
M  V30 7 C 8.9248 -4.1906 0.0 0
M  V30 8 C 9.2849 -5.8848 0.0 0
M  V30 9 C 10.9322 -6.42 0.0 0
M  V30 10 C 9.2338 -3.2395 0.0 0
M  V30 11 C 7.9466 -4.3985 0.0 0
M  V30 12 C 9.954 -6.6279 0.0 0
M  V30 13 C 8.5647 -2.4964 0.0 0
M  V30 14 C 7.2775 -3.6554 0.0 0
M  V30 15 C 7.5865 -2.7043 0.0 0
M  V30 16 C 6.9174 -1.9612 0.0 0
M  V30 17 N 5.9392 -2.1691 0.0 0
M  V30 18 C 5.1961 -1.4999 0.0 0
M  V30 19 C 5.5325 -3.0826 0.0 0
M  V30 20 C 4.3301 -1.9999 0.0 0
M  V30 21 C 5.1961 -0.4999 0.0 0
M  V30 22 C 4.538 -2.9781 0.0 0
M  V30 23 C 6.0325 -3.9487 0.0 0
M  V30 24 C 3.4641 -1.5 0.0 0
M  V30 25 C 4.3301 0.0 0.0 0
M  V30 26 C 3.8689 -3.7212 0.0 0
M  V30 27 C 3.4641 -0.5 0.0 0
M  V30 28 C 2.598 0.0 0.0 0
M  V30 29 O 2.598 1.0 0.0 0
M  V30 30 N 1.732 -0.5 0.0 0
M  V30 31 C 0.866 0.0 0.0 0
M  V30 32 C 0.0 -0.5 0.0 0
M  V30 33 C -0.866 0.0 0.0 0
M  V30 34 C 0.0 -1.4999 0.0 0
M  V30 35 C -1.732 -0.4999 0.0 0
M  V30 36 C -0.866 -1.9999 0.0 0
M  V30 37 O -2.598 0.0 0.0 0
M  V30 38 C -1.732 -1.4999 0.0 0
M  V30 39 C -3.4641 -0.4999 0.0 0
M  V30 END ATOM
M  V30 BEGIN BOND
M  V30 1 2 1 2
M  V30 2 1 2 3
M  V30 3 1 2 4
M  V30 4 2 4 5
M  V30 5 1 4 6
M  V30 6 1 5 7
M  V30 7 1 5 8
M  V30 8 2 6 9
M  V30 9 2 7 10
M  V30 10 1 7 11
M  V30 11 2 8 12
M  V30 12 1 10 13
M  V30 13 2 11 14
M  V30 14 2 13 15
M  V30 15 1 15 16
M  V30 16 1 16 17
M  V30 17 1 17 18
M  V30 18 1 17 19
M  V30 19 2 18 20
M  V30 20 1 18 21
M  V30 21 2 19 22
M  V30 22 1 19 23
M  V30 23 1 20 24
M  V30 24 2 21 25
M  V30 25 1 22 26
M  V30 26 2 24 27
M  V30 27 1 27 28
M  V30 28 2 28 29
M  V30 29 1 28 30
M  V30 30 1 30 31
M  V30 31 1 31 32
M  V30 32 2 32 33
M  V30 33 1 32 34
M  V30 34 1 33 35
M  V30 35 2 34 36
M  V30 36 1 35 37
M  V30 37 2 35 38
M  V30 38 1 37 39
M  V30 39 1 9 12
M  V30 40 1 14 15
M  V30 41 1 20 22
M  V30 42 1 25 27
M  V30 43 1 36 38
M  V30 END BOND
M  V30 END CTAB
M  END
>  <Molecule ChEMBL ID>
CHEMBL3695837

>  <Smiles>
COc1cccc(CNC(=O)c2ccc3c(c2)c(C)c(C)n3Cc2ccc(-c3ccccc3C(=O)O)cc2)c1

>  <IC50_nM>
4

>  <Assay Description>
Lanthascreen Competitive Binding Assay: The assay was performed according to manufacturer protocol. A mixture of nM GST-PPARG-LBD, 5 nM Tb-GST-antibody, 5 nM Fluormone Pan-PPAR Green, and serial dilutions of the experimental compound, beginning at 10 ׬M downwards, was added to wells of black 384-well low-volume plates (Greiner) to a total volume of 18 ׬L. All dilutions were made in TR-FRET assay buffer C. DMSO at 2% final concentration was used as a no-ligand control. Experiment was performed in triplicate, and incubated for 2 hours in the dark prior to assay read in Perkin Elmer ViewLux ultra HTS microplate reader. FRET signal was measured by excitation at 340 nm and emission at 520 nm for fluorescein and 490 nm for terbium. Fold change over DMSO was calculated using GraphPad Prism Software (La Jolla, Calif.) by calculating 520 nm/490 nm ratio. Graphs were plotted as fold change of FRET signal for compound treatment over DMSO-only control.

$$$$
CHEMBL5206276
Actelion Java MolfileCreator 2.0

  0  0  0  0  0  0              0 V3000
M  V30 BEGIN CTAB
M  V30 COUNTS 30 33 0 0 0
M  V30 BEGIN ATOM
M  V30 1 F 1.732 1.4999 0.0 0
M  V30 2 C 2.598 1.0 0.0 0
M  V30 3 C 2.598 0.0 0.0 0
M  V30 4 C 3.4641 1.4999 0.0 0
M  V30 5 C 1.732 -0.5 0.0 0
M  V30 6 C 3.4641 -0.5 0.0 0
M  V30 7 C 4.3301 1.0 0.0 0
M  V30 8 O 1.732 -1.5 0.0 0
M  V30 9 N 0.866 0.0 0.0 0
M  V30 10 C 4.3301 0.0 0.0 0
M  V30 11 C 0.0 -0.5 0.0 0
M  V30 12 N 5.1961 -0.5 0.0 0 CHG=1
M  V30 13 C -0.866 0.0 0.0 0
M  V30 14 C 0.0 -1.5 0.0 0
M  V30 15 O 5.1961 -1.5 0.0 0
M  V30 16 O 6.0621 0.0 0.0 0 CHG=-1
M  V30 17 C -1.732 -0.4999 0.0 0
M  V30 18 C -0.866 -1.9999 0.0 0
M  V30 19 N -2.6831 -0.1909 0.0 0
M  V30 20 C -1.732 -1.4999 0.0 0
M  V30 21 C -3.2708 -0.9999 0.0 0
M  V30 22 O -2.6831 -1.809 0.0 0
M  V30 23 C -4.2708 -0.9999 0.0 0
M  V30 24 C -4.7708 -0.1339 0.0 0
M  V30 25 C -4.7708 -1.866 0.0 0
M  V30 26 C -5.7708 -0.1339 0.0 0
M  V30 27 C -5.7708 -1.866 0.0 0
M  V30 28 C -6.2708 -0.9999 0.0 0
M  V30 29 C -7.2708 -0.9999 0.0 0
M  V30 30 C -7.7708 -1.866 0.0 0
M  V30 END ATOM
M  V30 BEGIN BOND
M  V30 1 1 1 2
M  V30 2 2 2 3
M  V30 3 1 2 4
M  V30 4 1 3 5
M  V30 5 1 3 6
M  V30 6 2 4 7
M  V30 7 2 5 8
M  V30 8 1 5 9
M  V30 9 2 6 10
M  V30 10 1 9 11
M  V30 11 1 10 12
M  V30 12 2 11 13
M  V30 13 1 11 14
M  V30 14 2 12 15
M  V30 15 1 12 16
M  V30 16 1 13 17
M  V30 17 2 14 18
M  V30 18 1 17 19
M  V30 19 2 17 20
M  V30 20 2 19 21
M  V30 21 1 20 22
M  V30 22 1 21 23
M  V30 23 2 23 24
M  V30 24 1 23 25
M  V30 25 1 24 26
M  V30 26 2 25 27
M  V30 27 2 26 28
M  V30 28 1 28 29
M  V30 29 1 29 30
M  V30 30 1 7 10
M  V30 31 1 18 20
M  V30 32 1 21 22
M  V30 33 1 27 28
M  V30 END BOND
M  V30 END CTAB
M  END
>  <Molecule ChEMBL ID>
CHEMBL5206276

>  <Smiles>
CCc1ccc(-c2nc3cc(NC(=O)c4cc([N+](=O)[O-])ccc4F)ccc3o2)cc1

>  <IC50_nM>
4

>  <Assay Description>
Inverse agonist activity at PPARgamma in human RT112/84-FABP4 cells assessed as reduction in PPARgamma transactivation measured by Nanoluciferase reporter gene assay

$$$$
CHEMBL3699405
Actelion Java MolfileCreator 2.0

  0  0  0  0  0  0              0 V3000
M  V30 BEGIN CTAB
M  V30 COUNTS 41 46 0 0 0
M  V30 BEGIN ATOM
M  V30 1 O 11.8592 -3.5669 0.0 0
M  V30 2 C 10.8811 -3.7748 0.0 0
M  V30 3 O 10.212 -3.0316 0.0 0
M  V30 4 C 10.5721 -4.7258 0.0 0
M  V30 5 C 9.5939 -4.9337 0.0 0
M  V30 6 C 11.2412 -5.469 0.0 0
M  V30 7 C 8.9248 -4.1906 0.0 0
M  V30 8 C 9.2849 -5.8848 0.0 0
M  V30 9 C 10.9322 -6.42 0.0 0
M  V30 10 C 9.2338 -3.2395 0.0 0
M  V30 11 C 7.9466 -4.3985 0.0 0
M  V30 12 C 9.954 -6.6279 0.0 0
M  V30 13 C 8.5647 -2.4964 0.0 0
M  V30 14 C 7.2775 -3.6554 0.0 0
M  V30 15 C 7.5865 -2.7043 0.0 0
M  V30 16 C 6.9174 -1.9612 0.0 0
M  V30 17 N 5.9392 -2.1691 0.0 0
M  V30 18 C 5.1961 -1.4999 0.0 0
M  V30 19 C 5.5325 -3.0826 0.0 0
M  V30 20 C 4.3301 -1.9999 0.0 0
M  V30 21 C 5.1961 -0.4999 0.0 0
M  V30 22 C 4.538 -2.9781 0.0 0
M  V30 23 C 6.0325 -3.9487 0.0 0
M  V30 24 C 3.4641 -1.5 0.0 0
M  V30 25 C 4.3301 0.0 0.0 0
M  V30 26 C 3.8689 -3.7212 0.0 0
M  V30 27 C 3.4641 -0.5 0.0 0
M  V30 28 C 2.598 0.0 0.0 0
M  V30 29 O 2.598 1.0 0.0 0
M  V30 30 N 1.732 -0.5 0.0 0
M  V30 31 C 0.866 0.0 0.0 0 CFG=2
M  V30 32 C 0.866 1.0 0.0 0
M  V30 33 C 0.0 -0.5 0.0 0
M  V30 34 N 1.732 1.4999 0.0 0
M  V30 35 C 0.0 1.4999 0.0 0
M  V30 36 C 1.732 2.5 0.0 0
M  V30 37 C 0.0 2.5 0.0 0
M  V30 38 C 0.866 3.0 0.0 0
M  V30 39 C 0.866 4.0 0.0 0
M  V30 40 C 1.366 4.866 0.0 0
M  V30 41 C 0.366 4.866 0.0 0
M  V30 END ATOM
M  V30 BEGIN BOND
M  V30 1 2 1 2
M  V30 2 1 2 3
M  V30 3 1 2 4
M  V30 4 2 4 5
M  V30 5 1 4 6
M  V30 6 1 5 7
M  V30 7 1 5 8
M  V30 8 2 6 9
M  V30 9 2 7 10
M  V30 10 1 7 11
M  V30 11 2 8 12
M  V30 12 1 10 13
M  V30 13 2 11 14
M  V30 14 2 13 15
M  V30 15 1 15 16
M  V30 16 1 16 17
M  V30 17 1 17 18
M  V30 18 1 17 19
M  V30 19 2 18 20
M  V30 20 1 18 21
M  V30 21 2 19 22
M  V30 22 1 19 23
M  V30 23 1 20 24
M  V30 24 2 21 25
M  V30 25 1 22 26
M  V30 26 2 24 27
M  V30 27 1 27 28
M  V30 28 2 28 29
M  V30 29 1 28 30
M  V30 30 1 30 31
M  V30 31 1 31 32
M  V30 32 1 31 33 CFG=1
M  V30 33 2 32 34
M  V30 34 1 32 35
M  V30 35 1 34 36
M  V30 36 2 35 37
M  V30 37 2 36 38
M  V30 38 1 38 39
M  V30 39 1 39 40
M  V30 40 1 39 41
M  V30 41 1 9 12
M  V30 42 1 14 15
M  V30 43 1 20 22
M  V30 44 1 25 27
M  V30 45 1 37 38
M  V30 46 1 40 41
M  V30 END BOND
M  V30 BEGIN COLLECTION
M  V30 MDLV30/STEABS ATOMS=(1 31)
M  V30 END COLLECTION
M  V30 END CTAB
M  END
>  <Molecule ChEMBL ID>
CHEMBL3699405

>  <Smiles>
Cc1c(C)n(Cc2ccc(-c3ccccc3C(=O)O)cc2)c2ccc(C(=O)N[C@@H](C)c3ccc(C4CC4)cn3)cc12

>  <IC50_nM>
4

>  <Assay Description>
Lanthascreen Competitive Binding Assay: The assay was performed according to manufacturer protocol. A mixture of nM GST-PPARG-LBD, 5 nM Tb-GST-antibody, 5 nM Fluormone Pan-PPAR Green, and serial dilutions of the experimental compound, beginning at 10 ׬M downwards, was added to wells of black 384-well low-volume plates (Greiner) to a total volume of 18 ׬L. All dilutions were made in TR-FRET assay buffer C. DMSO at 2% final concentration was used as a no-ligand control. Experiment was performed in triplicate, and incubated for 2 hours in the dark prior to assay read in Perkin Elmer ViewLux ultra HTS microplate reader. FRET signal was measured by excitation at 340 nm and emission at 520 nm for fluorescein and 490 nm for terbium. Fold change over DMSO was calculated using GraphPad Prism Software (La Jolla, Calif.) by calculating 520 nm/490 nm ratio. Graphs were plotted as fold change of FRET signal for compound treatment over DMSO-only control.

$$$$
CHEMBL3695773
Actelion Java MolfileCreator 2.0

  0  0  0  0  0  0              0 V3000
M  V30 BEGIN CTAB
M  V30 COUNTS 38 42 0 0 0
M  V30 BEGIN ATOM
M  V30 1 Cl 9.0932 -3.0 0.0 0
M  V30 2 C 7.7942 -2.25 0.0 0
M  V30 3 C 7.7942 -0.75 0.0 0
M  V30 4 C 6.4951 -2.9999 0.0 0
M  V30 5 C 6.4951 0.0 0.0 0
M  V30 6 C 5.1961 -2.25 0.0 0
M  V30 7 C 5.1961 -0.75 0.0 0
M  V30 8 C 3.8971 0.0 0.0 0
M  V30 9 N 2.598 -0.75 0.0 0
M  V30 10 C 1.299 0.0 0.0 0
M  V30 11 O 1.299 1.5 0.0 0
M  V30 12 C 0.0 -0.75 0.0 0
M  V30 13 C 0.0 -2.25 0.0 0
M  V30 14 C -1.299 0.0 0.0 0
M  V30 15 C -1.299 -2.9999 0.0 0
M  V30 16 C -2.598 -0.7499 0.0 0
M  V30 17 C -2.598 -2.2499 0.0 0
M  V30 18 C -1.6109 -4.4672 0.0 0
M  V30 19 N -3.7127 -3.2536 0.0 0
M  V30 20 C -3.1026 -4.624 0.0 0
M  V30 21 C -0.6072 -5.5819 0.0 0
M  V30 22 C -5.18 -2.9418 0.0 0
M  V30 23 C -3.8526 -5.923 0.0 0
M  V30 24 C -6.1837 -4.0565 0.0 0
M  V30 25 C -7.6509 -3.7446 0.0 0
M  V30 26 C -5.7201 -5.4831 0.0 0
M  V30 27 C -8.6546 -4.8593 0.0 0
M  V30 28 C -6.7238 -6.5978 0.0 0
M  V30 29 C -8.1911 -6.2859 0.0 0
M  V30 30 C -9.1947 -7.4006 0.0 0
M  V30 31 C -10.662 -7.0888 0.0 0
M  V30 32 C -8.7312 -8.8272 0.0 0
M  V30 33 C -11.1255 -5.6622 0.0 0
M  V30 34 C -11.6657 -8.2035 0.0 0
M  V30 35 C -9.7349 -9.9419 0.0 0
M  V30 36 O -10.1218 -4.5475 0.0 0
M  V30 37 O -12.5927 -5.3503 0.0 0
M  V30 38 C -11.2021 -9.6301 0.0 0
M  V30 END ATOM
M  V30 BEGIN BOND
M  V30 1 1 1 2
M  V30 2 2 2 3
M  V30 3 1 2 4
M  V30 4 1 3 5
M  V30 5 2 4 6
M  V30 6 2 5 7
M  V30 7 1 7 8
M  V30 8 1 8 9
M  V30 9 1 9 10
M  V30 10 2 10 11
M  V30 11 1 10 12
M  V30 12 2 12 13
M  V30 13 1 12 14
M  V30 14 1 13 15
M  V30 15 2 14 16
M  V30 16 2 15 17
M  V30 17 1 15 18
M  V30 18 1 17 19
M  V30 19 2 18 20
M  V30 20 1 18 21
M  V30 21 1 19 22
M  V30 22 1 20 23
M  V30 23 1 22 24
M  V30 24 2 24 25
M  V30 25 1 24 26
M  V30 26 1 25 27
M  V30 27 2 26 28
M  V30 28 2 27 29
M  V30 29 1 29 30
M  V30 30 2 30 31
M  V30 31 1 30 32
M  V30 32 1 31 33
M  V30 33 1 31 34
M  V30 34 2 32 35
M  V30 35 2 33 36
M  V30 36 1 33 37
M  V30 37 2 34 38
M  V30 38 1 6 7
M  V30 39 1 16 17
M  V30 40 1 19 20
M  V30 41 1 28 29
M  V30 42 1 35 38
M  V30 END BOND
M  V30 END CTAB
M  END
>  <Molecule ChEMBL ID>
CHEMBL3695773

>  <Smiles>
Cc1c(C)n(Cc2ccc(-c3ccccc3C(=O)O)cc2)c2ccc(C(=O)NCc3ccc(Cl)cc3)cc12

>  <IC50_nM>
4

>  <Assay Description>
Lanthascreen Competitive Binding Assay: The assay was performed according to manufacturer protocol. A mixture of nM GST-PPARG-LBD, 5 nM Tb-GST-antibody, 5 nM Fluormone Pan-PPAR Green, and serial dilutions of the experimental compound, beginning at 10 ׬M downwards, was added to wells of black 384-well low-volume plates (Greiner) to a total volume of 18 ׬L. All dilutions were made in TR-FRET assay buffer C. DMSO at 2% final concentration was used as a no-ligand control. Experiment was performed in triplicate, and incubated for 2 hours in the dark prior to assay read in Perkin Elmer ViewLux ultra HTS microplate reader. FRET signal was measured by excitation at 340 nm and emission at 520 nm for fluorescein and 490 nm for terbium. Fold change over DMSO was calculated using GraphPad Prism Software (La Jolla, Calif.) by calculating 520 nm/490 nm ratio. Graphs were plotted as fold change of FRET signal for compound treatment over DMSO-only control.

$$$$
CHEMBL3695840
Actelion Java MolfileCreator 2.0

  0  0  0  0  0  0              0 V3000
M  V30 BEGIN CTAB
M  V30 COUNTS 38 42 0 0 0
M  V30 BEGIN ATOM
M  V30 1 O 11.8592 -3.5669 0.0 0
M  V30 2 C 10.8811 -3.7748 0.0 0
M  V30 3 O 10.212 -3.0316 0.0 0
M  V30 4 C 10.5721 -4.7258 0.0 0
M  V30 5 C 9.5939 -4.9337 0.0 0
M  V30 6 C 11.2412 -5.469 0.0 0
M  V30 7 C 8.9248 -4.1906 0.0 0
M  V30 8 C 9.2849 -5.8848 0.0 0
M  V30 9 C 10.9322 -6.42 0.0 0
M  V30 10 C 9.2338 -3.2395 0.0 0
M  V30 11 C 7.9466 -4.3985 0.0 0
M  V30 12 C 9.954 -6.6279 0.0 0
M  V30 13 C 8.5647 -2.4964 0.0 0
M  V30 14 C 7.2775 -3.6554 0.0 0
M  V30 15 C 7.5865 -2.7043 0.0 0
M  V30 16 C 6.9174 -1.9612 0.0 0
M  V30 17 N 5.9392 -2.1691 0.0 0
M  V30 18 C 5.1961 -1.4999 0.0 0
M  V30 19 C 5.5325 -3.0826 0.0 0
M  V30 20 C 4.3301 -1.9999 0.0 0
M  V30 21 C 5.1961 -0.4999 0.0 0
M  V30 22 C 4.538 -2.9781 0.0 0
M  V30 23 C 6.0325 -3.9487 0.0 0
M  V30 24 C 3.4641 -1.5 0.0 0
M  V30 25 C 4.3301 0.0 0.0 0
M  V30 26 C 3.8689 -3.7212 0.0 0
M  V30 27 C 3.4641 -0.5 0.0 0
M  V30 28 C 2.598 0.0 0.0 0
M  V30 29 O 2.598 1.0 0.0 0
M  V30 30 N 1.732 -0.5 0.0 0
M  V30 31 C 0.866 0.0 0.0 0
M  V30 32 C 0.0 -0.5 0.0 0
M  V30 33 C -0.866 0.0 0.0 0
M  V30 34 C 0.0 -1.4999 0.0 0
M  V30 35 C -1.732 -0.4999 0.0 0
M  V30 36 C -0.866 -1.9999 0.0 0
M  V30 37 C -1.732 -1.4999 0.0 0
M  V30 38 C -2.598 -1.9999 0.0 0
M  V30 END ATOM
M  V30 BEGIN BOND
M  V30 1 2 1 2
M  V30 2 1 2 3
M  V30 3 1 2 4
M  V30 4 2 4 5
M  V30 5 1 4 6
M  V30 6 1 5 7
M  V30 7 1 5 8
M  V30 8 2 6 9
M  V30 9 2 7 10
M  V30 10 1 7 11
M  V30 11 2 8 12
M  V30 12 1 10 13
M  V30 13 2 11 14
M  V30 14 2 13 15
M  V30 15 1 15 16
M  V30 16 1 16 17
M  V30 17 1 17 18
M  V30 18 1 17 19
M  V30 19 2 18 20
M  V30 20 1 18 21
M  V30 21 2 19 22
M  V30 22 1 19 23
M  V30 23 1 20 24
M  V30 24 2 21 25
M  V30 25 1 22 26
M  V30 26 2 24 27
M  V30 27 1 27 28
M  V30 28 2 28 29
M  V30 29 1 28 30
M  V30 30 1 30 31
M  V30 31 1 31 32
M  V30 32 2 32 33
M  V30 33 1 32 34
M  V30 34 1 33 35
M  V30 35 2 34 36
M  V30 36 2 35 37
M  V30 37 1 37 38
M  V30 38 1 9 12
M  V30 39 1 14 15
M  V30 40 1 20 22
M  V30 41 1 25 27
M  V30 42 1 36 37
M  V30 END BOND
M  V30 END CTAB
M  END
>  <Molecule ChEMBL ID>
CHEMBL3695840

>  <Smiles>
Cc1ccc(CNC(=O)c2ccc3c(c2)c(C)c(C)n3Cc2ccc(-c3ccccc3C(=O)O)cc2)cc1

>  <IC50_nM>
4

>  <Assay Description>
Binding affinity to GST-tagged PPAR-gamma-LBD (unknown origin) after 2 hrs by Lantha screen assay using fluormone Pan-PPAR green probe

$$$$
CHEMBL1946758
Actelion Java MolfileCreator 2.0

  0  0  0  0  0  0              0 V3000
M  V30 BEGIN CTAB
M  V30 COUNTS 40 44 0 0 0
M  V30 BEGIN ATOM
M  V30 1 Cl 4.3301 0.9999 0.0 0
M  V30 2 C 4.3301 0.0 0.0 0
M  V30 3 C 3.4641 -0.5 0.0 0
M  V30 4 C 5.1961 -0.5 0.0 0
M  V30 5 O 2.598 0.0 0.0 0
M  V30 6 C 3.4641 -1.5 0.0 0
M  V30 7 C 5.1961 -1.5 0.0 0
M  V30 8 C 1.732 -0.5 0.0 0 CFG=1
M  V30 9 C 4.3301 -2.0 0.0 0
M  V30 10 C 0.866 0.0 0.0 0
M  V30 11 C 1.732 -1.5 0.0 0
M  V30 12 C 4.3301 -3.0 0.0 0
M  V30 13 O 0.866 1.0 0.0 0
M  V30 14 O 0.0 -0.5 0.0 0
M  V30 15 N 5.1961 -3.5 0.0 0
M  V30 16 C 5.3006 -4.4945 0.0 0
M  V30 17 C 6.1096 -3.0932 0.0 0
M  V30 18 O 4.5575 -5.1636 0.0 0
M  V30 19 N 6.2788 -4.7024 0.0 0
M  V30 20 C 6.7788 -3.8364 0.0 0
M  V30 21 C 6.4187 -2.1422 0.0 0
M  V30 22 C 6.6855 -5.6159 0.0 0
M  V30 23 C 7.7569 -3.6284 0.0 0
M  V30 24 C 7.3968 -1.9342 0.0 0
M  V30 25 N 6.1855 -6.482 0.0 0
M  V30 26 C 7.6637 -5.8238 0.0 0
M  V30 27 C 8.0659 -2.6774 0.0 0
M  V30 28 O 6.8546 -7.2251 0.0 0
M  V30 29 C 7.7682 -6.8184 0.0 0
M  V30 30 C 8.4727 -5.2361 0.0 0
M  V30 31 O 9.0441 -2.4695 0.0 0
M  V30 32 C 8.6817 -7.2251 0.0 0
M  V30 33 C 9.3862 -5.6428 0.0 0
M  V30 34 C 9.3531 -1.5184 0.0 0
M  V30 35 C 9.4908 -6.6373 0.0 0
M  V30 36 F 8.4021 -1.2094 0.0 0
M  V30 37 F 9.6621 -0.5674 0.0 0
M  V30 38 F 10.3042 -1.8274 0.0 0
M  V30 39 O 10.4043 -7.0441 0.0 0
M  V30 40 C 11.2133 -6.4563 0.0 0
M  V30 END ATOM
M  V30 BEGIN BOND
M  V30 1 1 1 2
M  V30 2 2 2 3
M  V30 3 1 2 4
M  V30 4 1 3 5
M  V30 5 1 3 6
M  V30 6 2 4 7
M  V30 7 1 5 8
M  V30 8 2 6 9
M  V30 9 1 8 10
M  V30 10 1 8 11 CFG=3
M  V30 11 1 9 12
M  V30 12 2 10 13
M  V30 13 1 10 14
M  V30 14 1 12 15
M  V30 15 1 15 16
M  V30 16 1 15 17
M  V30 17 2 16 18
M  V30 18 1 16 19
M  V30 19 2 17 20
M  V30 20 1 17 21
M  V30 21 1 19 22
M  V30 22 1 20 23
M  V30 23 2 21 24
M  V30 24 2 22 25
M  V30 25 1 22 26
M  V30 26 2 23 27
M  V30 27 1 25 28
M  V30 28 2 26 29
M  V30 29 1 26 30
M  V30 30 1 27 31
M  V30 31 1 29 32
M  V30 32 2 30 33
M  V30 33 1 31 34
M  V30 34 2 32 35
M  V30 35 1 34 36
M  V30 36 1 34 37
M  V30 37 1 34 38
M  V30 38 1 35 39
M  V30 39 1 39 40
M  V30 40 1 7 9
M  V30 41 1 19 20
M  V30 42 1 24 27
M  V30 43 1 28 29
M  V30 44 1 33 35
M  V30 END BOND
M  V30 BEGIN COLLECTION
M  V30 MDLV30/STEABS ATOMS=(1 8)
M  V30 END COLLECTION
M  V30 END CTAB
M  END
>  <Molecule ChEMBL ID>
CHEMBL1946758

>  <Smiles>
COc1ccc2c(-n3c(=O)n(Cc4ccc(Cl)c(O[C@H](C)C(=O)O)c4)c4ccc(OC(F)(F)F)cc43)noc2c1

>  <IC50_nM>
4.1

>  <Assay Description>
Binding affinity to human PPARgamma by scintillation proximity assay

$$$$
CHEMBL1946755
Actelion Java MolfileCreator 2.0

  0  0  0  0  0  0              0 V3000
M  V30 BEGIN CTAB
M  V30 COUNTS 39 43 0 0 0
M  V30 BEGIN ATOM
M  V30 1 Cl 4.3301 0.9999 0.0 0
M  V30 2 C 4.3301 0.0 0.0 0
M  V30 3 C 3.4641 -0.5 0.0 0
M  V30 4 C 5.1961 -0.5 0.0 0
M  V30 5 O 2.598 0.0 0.0 0
M  V30 6 C 3.4641 -1.5 0.0 0
M  V30 7 C 5.1961 -1.5 0.0 0
M  V30 8 C 1.732 -0.5 0.0 0 CFG=1
M  V30 9 C 4.3301 -2.0 0.0 0
M  V30 10 C 0.866 0.0 0.0 0
M  V30 11 C 1.732 -1.5 0.0 0
M  V30 12 C 4.3301 -3.0 0.0 0
M  V30 13 O 0.866 1.0 0.0 0
M  V30 14 O 0.0 -0.5 0.0 0
M  V30 15 N 5.1961 -3.5 0.0 0
M  V30 16 C 5.3006 -4.4945 0.0 0
M  V30 17 C 6.1096 -3.0932 0.0 0
M  V30 18 O 4.5575 -5.1636 0.0 0
M  V30 19 N 6.2788 -4.7024 0.0 0
M  V30 20 C 6.7788 -3.8364 0.0 0
M  V30 21 C 6.4187 -2.1422 0.0 0
M  V30 22 C 6.6855 -5.6159 0.0 0
M  V30 23 C 7.7569 -3.6284 0.0 0
M  V30 24 C 7.3968 -1.9342 0.0 0
M  V30 25 N 6.1855 -6.482 0.0 0
M  V30 26 C 7.6637 -5.8238 0.0 0
M  V30 27 C 8.0659 -2.6774 0.0 0
M  V30 28 C 7.7058 -0.9832 0.0 0
M  V30 29 O 6.8546 -7.2251 0.0 0
M  V30 30 C 7.7682 -6.8184 0.0 0
M  V30 31 C 8.4727 -5.2361 0.0 0
M  V30 32 F 6.7548 -0.6742 0.0 0
M  V30 33 F 8.0148 -0.0321 0.0 0
M  V30 34 F 8.6569 -1.2922 0.0 0
M  V30 35 C 8.6817 -7.2251 0.0 0
M  V30 36 C 9.3862 -5.6428 0.0 0
M  V30 37 C 9.4908 -6.6373 0.0 0
M  V30 38 O 10.4043 -7.0441 0.0 0
M  V30 39 C 11.2133 -6.4563 0.0 0
M  V30 END ATOM
M  V30 BEGIN BOND
M  V30 1 1 1 2
M  V30 2 2 2 3
M  V30 3 1 2 4
M  V30 4 1 3 5
M  V30 5 1 3 6
M  V30 6 2 4 7
M  V30 7 1 5 8
M  V30 8 2 6 9
M  V30 9 1 8 10
M  V30 10 1 8 11 CFG=3
M  V30 11 1 9 12
M  V30 12 2 10 13
M  V30 13 1 10 14
M  V30 14 1 12 15
M  V30 15 1 15 16
M  V30 16 1 15 17
M  V30 17 2 16 18
M  V30 18 1 16 19
M  V30 19 2 17 20
M  V30 20 1 17 21
M  V30 21 1 19 22
M  V30 22 1 20 23
M  V30 23 2 21 24
M  V30 24 2 22 25
M  V30 25 1 22 26
M  V30 26 2 23 27
M  V30 27 1 24 28
M  V30 28 1 25 29
M  V30 29 2 26 30
M  V30 30 1 26 31
M  V30 31 1 28 32
M  V30 32 1 28 33
M  V30 33 1 28 34
M  V30 34 1 30 35
M  V30 35 2 31 36
M  V30 36 2 35 37
M  V30 37 1 37 38
M  V30 38 1 38 39
M  V30 39 1 7 9
M  V30 40 1 19 20
M  V30 41 1 24 27
M  V30 42 1 29 30
M  V30 43 1 36 37
M  V30 END BOND
M  V30 BEGIN COLLECTION
M  V30 MDLV30/STEABS ATOMS=(1 8)
M  V30 END COLLECTION
M  V30 END CTAB
M  END
>  <Molecule ChEMBL ID>
CHEMBL1946755

>  <Smiles>
COc1ccc2c(-n3c(=O)n(Cc4ccc(Cl)c(O[C@H](C)C(=O)O)c4)c4cc(C(F)(F)F)ccc43)noc2c1

>  <IC50_nM>
4.1

>  <Assay Description>
Binding affinity to human PPARgamma by scintillation proximity assay

$$$$
CHEMBL5267263
Actelion Java MolfileCreator 2.0

  0  0  0  0  0  0              0 V3000
M  V30 BEGIN CTAB
M  V30 COUNTS 33 35 0 0 0
M  V30 BEGIN ATOM
M  V30 1 Cl 6.0621 -1.9999 0.0 0
M  V30 2 C 5.1961 -1.4999 0.0 0
M  V30 3 C 5.1961 -0.5 0.0 0
M  V30 4 C 4.3301 -1.9999 0.0 0
M  V30 5 C 6.0621 0.0 0.0 0
M  V30 6 C 4.3301 0.0 0.0 0
M  V30 7 C 3.4641 -1.5 0.0 0
M  V30 8 O 6.0621 0.9999 0.0 0
M  V30 9 N 6.9282 -0.5 0.0 0
M  V30 10 C 3.4641 -0.5 0.0 0
M  V30 11 F 2.598 -2.0 0.0 0
M  V30 12 C 7.7942 0.0 0.0 0
M  V30 13 C 2.598 0.0 0.0 0
M  V30 14 C 8.6602 -0.5 0.0 0
M  V30 15 C 7.7942 0.9999 0.0 0
M  V30 16 O 2.598 1.0 0.0 0
M  V30 17 N 1.732 -0.5 0.0 0
M  V30 18 C 9.5262 0.0 0.0 0
M  V30 19 C 8.6602 -1.5 0.0 0
M  V30 20 C 8.6602 1.4999 0.0 0
M  V30 21 C 0.866 0.0 0.0 0
M  V30 22 C 9.5262 0.9999 0.0 0
M  V30 23 C 0.0 -0.5 0.0 0
M  V30 24 O 10.3923 1.4999 0.0 0
M  V30 25 C -0.866 0.0 0.0 0
M  V30 26 C 0.0 -1.4999 0.0 0
M  V30 27 C 11.2583 0.9999 0.0 0
M  V30 28 C -1.732 -0.4999 0.0 0
M  V30 29 C -0.866 -1.9999 0.0 0
M  V30 30 F 11.2583 0.0 0.0 0
M  V30 31 F 12.1243 1.4999 0.0 0
M  V30 32 C -1.732 -1.4999 0.0 0
M  V30 33 F -2.598 -1.9999 0.0 0
M  V30 END ATOM
M  V30 BEGIN BOND
M  V30 1 1 1 2
M  V30 2 2 2 3
M  V30 3 1 2 4
M  V30 4 1 3 5
M  V30 5 1 3 6
M  V30 6 2 4 7
M  V30 7 2 5 8
M  V30 8 1 5 9
M  V30 9 2 6 10
M  V30 10 1 7 11
M  V30 11 1 9 12
M  V30 12 1 10 13
M  V30 13 2 12 14
M  V30 14 1 12 15
M  V30 15 2 13 16
M  V30 16 1 13 17
M  V30 17 1 14 18
M  V30 18 1 14 19
M  V30 19 2 15 20
M  V30 20 1 17 21
M  V30 21 2 18 22
M  V30 22 1 21 23
M  V30 23 1 22 24
M  V30 24 2 23 25
M  V30 25 1 23 26
M  V30 26 1 24 27
M  V30 27 1 25 28
M  V30 28 2 26 29
M  V30 29 1 27 30
M  V30 30 1 27 31
M  V30 31 2 28 32
M  V30 32 1 32 33
M  V30 33 1 7 10
M  V30 34 1 20 22
M  V30 35 1 29 32
M  V30 END BOND
M  V30 END CTAB
M  END
>  <Molecule ChEMBL ID>
CHEMBL5267263

>  <Smiles>
Cc1cc(OC(F)F)ccc1NC(=O)c1cc(C(=O)NCc2ccc(F)cc2)c(F)cc1Cl

>  <IC50_nM>
4.2

>  <Assay Description>
Inverse agonist activity at human PPARgamma in human RT112/84 transfected with NLuc-fused FABP4 assessed as reduction in PPARgamma transactivation incubated for 6 to 18 hrs by Nano-Glo luciferase assay

$$$$
CHEMBL5183657
Actelion Java MolfileCreator 2.0

  0  0  0  0  0  0              0 V3000
M  V30 BEGIN CTAB
M  V30 COUNTS 31 34 0 0 0
M  V30 BEGIN ATOM
M  V30 1 Cl 1.732 1.4999 0.0 0
M  V30 2 C 2.598 1.0 0.0 0
M  V30 3 C 2.598 0.0 0.0 0
M  V30 4 C 3.4641 1.4999 0.0 0
M  V30 5 C 1.732 -0.5 0.0 0
M  V30 6 C 3.4641 -0.5 0.0 0
M  V30 7 C 4.3301 1.0 0.0 0
M  V30 8 O 1.732 -1.5 0.0 0
M  V30 9 N 0.866 0.0 0.0 0
M  V30 10 C 4.3301 0.0 0.0 0
M  V30 11 C 0.0 -0.5 0.0 0
M  V30 12 N 5.1961 -0.5 0.0 0 CHG=1
M  V30 13 C -0.866 0.0 0.0 0
M  V30 14 C 0.0 -1.5 0.0 0
M  V30 15 O 5.1961 -1.5 0.0 0
M  V30 16 O 6.0621 0.0 0.0 0 CHG=-1
M  V30 17 C -1.732 -0.4999 0.0 0
M  V30 18 C -0.866 -1.9999 0.0 0
M  V30 19 N -2.6831 -0.1909 0.0 0
M  V30 20 C -1.732 -1.4999 0.0 0
M  V30 21 C -3.2708 -0.9999 0.0 0
M  V30 22 N -2.6831 -1.809 0.0 0
M  V30 23 C -4.2708 -0.9999 0.0 0
M  V30 24 C -2.9921 -2.76 0.0 0
M  V30 25 C -4.7708 -0.1339 0.0 0
M  V30 26 C -4.7708 -1.866 0.0 0
M  V30 27 C -5.7708 -0.1339 0.0 0
M  V30 28 C -5.7708 -1.866 0.0 0
M  V30 29 C -6.2708 -0.9999 0.0 0
M  V30 30 C -7.2708 -0.9999 0.0 0
M  V30 31 C -7.7708 -1.866 0.0 0
M  V30 END ATOM
M  V30 BEGIN BOND
M  V30 1 1 1 2
M  V30 2 2 2 3
M  V30 3 1 2 4
M  V30 4 1 3 5
M  V30 5 1 3 6
M  V30 6 2 4 7
M  V30 7 2 5 8
M  V30 8 1 5 9
M  V30 9 2 6 10
M  V30 10 1 9 11
M  V30 11 1 10 12
M  V30 12 2 11 13
M  V30 13 1 11 14
M  V30 14 2 12 15
M  V30 15 1 12 16
M  V30 16 1 13 17
M  V30 17 2 14 18
M  V30 18 1 17 19
M  V30 19 2 17 20
M  V30 20 2 19 21
M  V30 21 1 20 22
M  V30 22 1 21 23
M  V30 23 1 22 24
M  V30 24 2 23 25
M  V30 25 1 23 26
M  V30 26 1 25 27
M  V30 27 2 26 28
M  V30 28 2 27 29
M  V30 29 1 29 30
M  V30 30 1 30 31
M  V30 31 1 7 10
M  V30 32 1 18 20
M  V30 33 1 21 22
M  V30 34 1 28 29
M  V30 END BOND
M  V30 END CTAB
M  END
>  <Molecule ChEMBL ID>
CHEMBL5183657

>  <Smiles>
CCc1ccc(-c2nc3cc(NC(=O)c4cc([N+](=O)[O-])ccc4Cl)ccc3n2C)cc1

>  <IC50_nM>
4.4

>  <Assay Description>
Inverse agonist activity at PPARgamma in human RT112/84-FABP4 cells assessed as reduction in PPARgamma transactivation measured by Nanoluciferase reporter gene assay

$$$$
CHEMBL510698
Actelion Java MolfileCreator 2.0

  0  0  0  0  0  0              0 V3000
M  V30 BEGIN CTAB
M  V30 COUNTS 19 20 0 0 0
M  V30 BEGIN ATOM
M  V30 1 Cl 1.732 1.4999 0.0 0
M  V30 2 C 2.598 1.0 0.0 0
M  V30 3 C 2.598 0.0 0.0 0
M  V30 4 C 3.4641 1.4999 0.0 0
M  V30 5 C 1.732 -0.5 0.0 0
M  V30 6 C 3.4641 -0.5 0.0 0
M  V30 7 C 4.3301 1.0 0.0 0
M  V30 8 O 1.732 -1.5 0.0 0
M  V30 9 N 0.866 0.0 0.0 0
M  V30 10 C 4.3301 0.0 0.0 0
M  V30 11 C 0.0 -0.5 0.0 0
M  V30 12 N 5.1961 -0.5 0.0 0 CHG=1
M  V30 13 C -0.866 0.0 0.0 0
M  V30 14 C 0.0 -1.4999 0.0 0
M  V30 15 O 5.1961 -1.5 0.0 0
M  V30 16 O 6.0621 0.0 0.0 0 CHG=-1
M  V30 17 C -1.732 -0.4999 0.0 0
M  V30 18 C -0.866 -1.9999 0.0 0
M  V30 19 N -1.732 -1.4999 0.0 0
M  V30 END ATOM
M  V30 BEGIN BOND
M  V30 1 1 1 2
M  V30 2 2 2 3
M  V30 3 1 2 4
M  V30 4 1 3 5
M  V30 5 1 3 6
M  V30 6 2 4 7
M  V30 7 2 5 8
M  V30 8 1 5 9
M  V30 9 2 6 10
M  V30 10 1 9 11
M  V30 11 1 10 12
M  V30 12 2 11 13
M  V30 13 1 11 14
M  V30 14 2 12 15
M  V30 15 1 12 16
M  V30 16 1 13 17
M  V30 17 2 14 18
M  V30 18 2 17 19
M  V30 19 1 7 10
M  V30 20 1 18 19
M  V30 END BOND
M  V30 END CTAB
M  END
>  <Molecule ChEMBL ID>
CHEMBL510698

>  <Smiles>
O=C(Nc1ccncc1)c1cc([N+](=O)[O-])ccc1Cl

>  <IC50_nM>
4.7

>  <Assay Description>
Inverse agonist activity at human PPARgamma expressed in CHO cells co-expressing GAL4-NHR-LBD assessed as transcriptional repression preincubated for 6 hrs followed by luciferin addition by luminescence method

$$$$
CHEMBL5273393
Actelion Java MolfileCreator 2.0

  0  0  0  0  0  0              0 V3000
M  V30 BEGIN CTAB
M  V30 COUNTS 35 38 0 0 0
M  V30 BEGIN ATOM
M  V30 1 Cl 6.0621 -1.9999 0.0 0
M  V30 2 C 5.1961 -1.4999 0.0 0
M  V30 3 C 5.1961 -0.5 0.0 0
M  V30 4 C 4.3301 -1.9999 0.0 0
M  V30 5 C 6.0621 0.0 0.0 0
M  V30 6 C 4.3301 0.0 0.0 0
M  V30 7 C 3.4641 -1.5 0.0 0
M  V30 8 O 6.0621 0.9999 0.0 0
M  V30 9 N 6.9282 -0.5 0.0 0
M  V30 10 C 3.4641 -0.5 0.0 0
M  V30 11 F 2.598 -2.0 0.0 0
M  V30 12 C 7.7942 0.0 0.0 0
M  V30 13 C 2.598 0.0 0.0 0
M  V30 14 C 8.6602 -0.5 0.0 0
M  V30 15 C 7.7942 0.9999 0.0 0
M  V30 16 O 2.598 1.0 0.0 0
M  V30 17 N 1.732 -0.5 0.0 0
M  V30 18 C 9.5262 0.0 0.0 0
M  V30 19 C 8.6602 -1.5 0.0 0
M  V30 20 C 8.6602 1.4999 0.0 0
M  V30 21 C 0.866 0.0 0.0 0
M  V30 22 C 9.5262 0.9999 0.0 0
M  V30 23 C 0.0 -0.5 0.0 0
M  V30 24 C 10.3923 1.4999 0.0 0
M  V30 25 C -0.866 0.0 0.0 0
M  V30 26 C 0.0 -1.4999 0.0 0
M  V30 27 O 11.3058 1.0932 0.0 0
M  V30 28 N 10.4968 2.4945 0.0 0
M  V30 29 C -1.732 -0.4999 0.0 0
M  V30 30 C -0.866 -1.9999 0.0 0
M  V30 31 C 11.9749 1.8364 0.0 0
M  V30 32 N 11.4749 2.7024 0.0 0
M  V30 33 F -2.598 0.0 0.0 0
M  V30 34 C -1.732 -1.4999 0.0 0
M  V30 35 F -2.598 -1.9999 0.0 0
M  V30 END ATOM
M  V30 BEGIN BOND
M  V30 1 1 1 2
M  V30 2 2 2 3
M  V30 3 1 2 4
M  V30 4 1 3 5
M  V30 5 1 3 6
M  V30 6 2 4 7
M  V30 7 2 5 8
M  V30 8 1 5 9
M  V30 9 2 6 10
M  V30 10 1 7 11
M  V30 11 1 9 12
M  V30 12 1 10 13
M  V30 13 2 12 14
M  V30 14 1 12 15
M  V30 15 2 13 16
M  V30 16 1 13 17
M  V30 17 1 14 18
M  V30 18 1 14 19
M  V30 19 2 15 20
M  V30 20 1 17 21
M  V30 21 2 18 22
M  V30 22 1 21 23
M  V30 23 1 22 24
M  V30 24 2 23 25
M  V30 25 1 23 26
M  V30 26 1 24 27
M  V30 27 2 24 28
M  V30 28 1 25 29
M  V30 29 2 26 30
M  V30 30 1 27 31
M  V30 31 1 28 32
M  V30 32 1 29 33
M  V30 33 2 29 34
M  V30 34 1 34 35
M  V30 35 1 7 10
M  V30 36 1 20 22
M  V30 37 1 30 34
M  V30 38 2 31 32
M  V30 END BOND
M  V30 END CTAB
M  END
>  <Molecule ChEMBL ID>
CHEMBL5273393

>  <Smiles>
Cc1cc(-c2nnco2)ccc1NC(=O)c1cc(C(=O)NCc2ccc(F)c(F)c2)c(F)cc1Cl

>  <IC50_nM>
4.8

>  <Assay Description>
Inverse agonist activity at human PPARgamma in human RT112/84 transfected with NLuc-fused FABP4 assessed as reduction in PPARgamma transactivation incubated for 6 to 18 hrs by Nano-Glo luciferase assay

$$$$
CHEMBL3695892
Actelion Java MolfileCreator 2.0

  0  0  0  0  0  0              0 V3000
M  V30 BEGIN CTAB
M  V30 COUNTS 37 41 0 0 0
M  V30 BEGIN ATOM
M  V30 1 Cl 2.598 -1.9999 0.0 0
M  V30 2 C 3.4641 -1.4999 0.0 0
M  V30 3 C 4.3301 -1.9999 0.0 0
M  V30 4 C 3.4641 -0.5 0.0 0
M  V30 5 Cl 4.3301 -2.9999 0.0 0
M  V30 6 C 5.1961 -1.4999 0.0 0
M  V30 7 C 4.3301 0.0 0.0 0
M  V30 8 C 2.598 0.0 0.0 0 CFG=2
M  V30 9 C 5.1961 -0.4999 0.0 0
M  V30 10 N 1.732 -0.5 0.0 0
M  V30 11 C 2.598 1.0 0.0 0
M  V30 12 C 0.866 0.0 0.0 0
M  V30 13 O 0.866 1.0 0.0 0
M  V30 14 C 0.0 -0.5 0.0 0
M  V30 15 C 0.0 -1.4999 0.0 0
M  V30 16 C -0.866 0.0 0.0 0
M  V30 17 C -0.866 -1.9999 0.0 0
M  V30 18 C -1.732 -0.4999 0.0 0
M  V30 19 C -1.732 -1.4999 0.0 0
M  V30 20 C -1.0739 -2.9781 0.0 0
M  V30 21 N -2.4751 -2.1691 0.0 0
M  V30 22 C -2.0684 -3.0826 0.0 0
M  V30 23 C -0.4048 -3.7212 0.0 0
M  V30 24 C -3.4533 -1.9612 0.0 0
M  V30 25 C -2.5684 -3.9487 0.0 0
M  V30 26 C -4.1224 -2.7043 0.0 0
M  V30 27 C -5.1006 -2.4964 0.0 0
M  V30 28 C -3.8134 -3.6554 0.0 0
M  V30 29 C -5.7697 -3.2395 0.0 0
M  V30 30 C -4.4825 -4.3985 0.0 0
M  V30 31 C -5.4607 -4.1906 0.0 0
M  V30 32 C -6.1298 -4.9337 0.0 0
M  V30 33 C -7.108 -4.7258 0.0 0
M  V30 34 C -5.8208 -5.8848 0.0 0
M  V30 35 C -7.7771 -5.469 0.0 0
M  V30 36 C -6.4899 -6.6279 0.0 0
M  V30 37 C -7.4681 -6.42 0.0 0
M  V30 END ATOM
M  V30 BEGIN BOND
M  V30 1 1 1 2
M  V30 2 2 2 3
M  V30 3 1 2 4
M  V30 4 1 3 5
M  V30 5 1 3 6
M  V30 6 2 4 7
M  V30 7 1 4 8
M  V30 8 2 6 9
M  V30 9 1 8 10
M  V30 10 1 8 11 CFG=3
M  V30 11 1 10 12
M  V30 12 2 12 13
M  V30 13 1 12 14
M  V30 14 2 14 15
M  V30 15 1 14 16
M  V30 16 1 15 17
M  V30 17 2 16 18
M  V30 18 2 17 19
M  V30 19 1 17 20
M  V30 20 1 19 21
M  V30 21 2 20 22
M  V30 22 1 20 23
M  V30 23 1 21 24
M  V30 24 1 22 25
M  V30 25 1 24 26
M  V30 26 2 26 27
M  V30 27 1 26 28
M  V30 28 1 27 29
M  V30 29 2 28 30
M  V30 30 2 29 31
M  V30 31 1 31 32
M  V30 32 2 32 33
M  V30 33 1 32 34
M  V30 34 1 33 35
M  V30 35 2 34 36
M  V30 36 2 35 37
M  V30 37 1 7 9
M  V30 38 1 18 19
M  V30 39 1 21 22
M  V30 40 1 30 31
M  V30 41 1 36 37
M  V30 END BOND
M  V30 BEGIN COLLECTION
M  V30 MDLV30/STEABS ATOMS=(1 8)
M  V30 END COLLECTION
M  V30 END CTAB
M  END
>  <Molecule ChEMBL ID>
CHEMBL3695892

>  <Smiles>
Cc1c(C)n(Cc2ccc(-c3ccccc3)cc2)c2ccc(C(=O)N[C@H](C)c3cccc(Cl)c3Cl)cc12

>  <IC50_nM>
5

>  <Assay Description>
Lanthascreen Competitive Binding Assay: The assay was performed according to manufacturer protocol. A mixture of nM GST-PPARG-LBD, 5 nM Tb-GST-antibody, 5 nM Fluormone Pan-PPAR Green, and serial dilutions of the experimental compound, beginning at 10 ׬M downwards, was added to wells of black 384-well low-volume plates (Greiner) to a total volume of 18 ׬L. All dilutions were made in TR-FRET assay buffer C. DMSO at 2% final concentration was used as a no-ligand control. Experiment was performed in triplicate, and incubated for 2 hours in the dark prior to assay read in Perkin Elmer ViewLux ultra HTS microplate reader. FRET signal was measured by excitation at 340 nm and emission at 520 nm for fluorescein and 490 nm for terbium. Fold change over DMSO was calculated using GraphPad Prism Software (La Jolla, Calif.) by calculating 520 nm/490 nm ratio. Graphs were plotted as fold change of FRET signal for compound treatment over DMSO-only control.

$$$$
CHEMBL237307
Actelion Java MolfileCreator 2.0

  0  0  0  0  0  0              0 V3000
M  V30 BEGIN CTAB
M  V30 COUNTS 37 39 0 0 0
M  V30 BEGIN ATOM
M  V30 1 F 6.4951 1.5 0.0 0
M  V30 2 C 6.4951 0.0 0.0 0
M  V30 3 C 5.1961 -0.75 0.0 0
M  V30 4 C 7.7942 -0.75 0.0 0
M  V30 5 C 3.8971 0.0 0.0 0
M  V30 6 C 5.1961 -2.25 0.0 0
M  V30 7 C 7.7942 -2.25 0.0 0
M  V30 8 O 3.8971 1.5 0.0 0
M  V30 9 N 2.598 -0.75 0.0 0
M  V30 10 C 6.4951 -3.0 0.0 0
M  V30 11 C 9.0932 -3.0 0.0 0
M  V30 12 C 1.299 0.0 0.0 0
M  V30 13 F 9.8432 -1.7009 0.0 0
M  V30 14 F 10.3923 -3.75 0.0 0
M  V30 15 F 8.3432 -4.299 0.0 0
M  V30 16 C 0.0 -0.75 0.0 0
M  V30 17 C -1.299 0.0 0.0 0
M  V30 18 C 0.0 -2.25 0.0 0
M  V30 19 C -2.598 -0.75 0.0 0
M  V30 20 C -1.299 -3.0 0.0 0
M  V30 21 O -3.8971 0.0 0.0 0
M  V30 22 C -2.598 -2.25 0.0 0
M  V30 23 C -5.1961 -0.75 0.0 0
M  V30 24 C -3.8971 -3.0 0.0 0
M  V30 25 C -6.4951 0.0 0.0 0
M  V30 26 C -5.1961 -2.25 0.0 0
M  V30 27 C -7.7942 -0.75 0.0 0
M  V30 28 C -6.4951 -3.0 0.0 0
M  V30 29 C -7.7942 -2.25 0.0 0
M  V30 30 C -9.0932 0.0 0.0 0
M  V30 31 O -9.0932 -3.0 0.0 0
M  V30 32 C -9.0932 -4.5 0.0 0
M  V30 33 C -10.3923 -5.25 0.0 0
M  V30 34 C -8.3433 -5.799 0.0 0
M  V30 35 C -7.5933 -4.4999 0.0 0
M  V30 36 O -11.6913 -4.5 0.0 0
M  V30 37 O -10.3923 -6.75 0.0 0
M  V30 END ATOM
M  V30 BEGIN BOND
M  V30 1 1 1 2
M  V30 2 2 2 3
M  V30 3 1 2 4
M  V30 4 1 3 5
M  V30 5 1 3 6
M  V30 6 2 4 7
M  V30 7 2 5 8
M  V30 8 1 5 9
M  V30 9 2 6 10
M  V30 10 1 7 11
M  V30 11 1 9 12
M  V30 12 1 11 13
M  V30 13 1 11 14
M  V30 14 1 11 15
M  V30 15 1 12 16
M  V30 16 2 16 17
M  V30 17 1 16 18
M  V30 18 1 17 19
M  V30 19 2 18 20
M  V30 20 1 19 21
M  V30 21 2 19 22
M  V30 22 1 21 23
M  V30 23 1 22 24
M  V30 24 2 23 25
M  V30 25 1 23 26
M  V30 26 1 25 27
M  V30 27 2 26 28
M  V30 28 2 27 29
M  V30 29 1 27 30
M  V30 30 1 29 31
M  V30 31 1 31 32
M  V30 32 1 32 33
M  V30 33 1 32 34
M  V30 34 1 32 35
M  V30 35 2 33 36
M  V30 36 1 33 37
M  V30 37 1 7 10
M  V30 38 1 20 22
M  V30 39 1 28 29
M  V30 END BOND
M  V30 END CTAB
M  END
>  <Molecule ChEMBL ID>
CHEMBL237307

>  <Smiles>
Cc1ccc(CNC(=O)c2ccc(C(F)(F)F)cc2F)cc1Oc1ccc(OC(C)(C)C(=O)O)c(C)c1

>  <IC50_nM>
5

>  <Assay Description>
Agonist activity at PPARgamma

$$$$
CHEMBL181644
Actelion Java MolfileCreator 2.0

  0  0  0  0  0  0              0 V3000
M  V30 BEGIN CTAB
M  V30 COUNTS 33 35 0 0 0
M  V30 BEGIN ATOM
M  V30 1 Cl 6.0621 1.0 0.0 0
M  V30 2 C 6.0621 0.0 0.0 0
M  V30 3 C 5.1961 -0.5 0.0 0
M  V30 4 C 6.9282 -0.4999 0.0 0
M  V30 5 O 4.3301 0.0 0.0 0
M  V30 6 C 5.1961 -1.4999 0.0 0
M  V30 7 C 6.9282 -1.4999 0.0 0
M  V30 8 C 3.4641 -0.5 0.0 0
M  V30 9 C 6.0621 -1.9999 0.0 0
M  V30 10 C 7.7942 -1.9999 0.0 0
M  V30 11 C 2.598 0.0 0.0 0
M  V30 12 C 8.6602 -1.4999 0.0 0 CFG=2
M  V30 13 C 1.732 -0.5 0.0 0
M  V30 14 O 8.6602 -0.4999 0.0 0
M  V30 15 C 9.5262 -1.9999 0.0 0
M  V30 16 O 0.866 0.0 0.0 0
M  V30 17 C 7.7942 0.0 0.0 0
M  V30 18 O 9.5262 -2.9999 0.0 0
M  V30 19 O 10.3923 -1.4999 0.0 0
M  V30 20 C 0.0 -0.5 0.0 0
M  V30 21 C -0.866 0.0 0.0 0
M  V30 22 C 0.0 -1.4999 0.0 0
M  V30 23 C -1.732 -0.4999 0.0 0
M  V30 24 C -0.866 -1.9999 0.0 0
M  V30 25 C -1.732 -1.4999 0.0 0
M  V30 26 C -2.598 -1.9999 0.0 0
M  V30 27 O -3.4641 -1.4999 0.0 0
M  V30 28 C -2.598 -2.9999 0.0 0
M  V30 29 C -3.4641 -3.4999 0.0 0
M  V30 30 C -1.732 -3.4999 0.0 0
M  V30 31 C -3.4641 -4.4999 0.0 0
M  V30 32 C -1.732 -4.4999 0.0 0
M  V30 33 C -2.598 -4.9999 0.0 0
M  V30 END ATOM
M  V30 BEGIN BOND
M  V30 1 1 1 2
M  V30 2 2 2 3
M  V30 3 1 2 4
M  V30 4 1 3 5
M  V30 5 1 3 6
M  V30 6 2 4 7
M  V30 7 1 5 8
M  V30 8 2 6 9
M  V30 9 1 7 10
M  V30 10 1 8 11
M  V30 11 1 10 12
M  V30 12 1 11 13
M  V30 13 1 12 14 CFG=3
M  V30 14 1 12 15
M  V30 15 1 13 16
M  V30 16 1 14 17
M  V30 17 2 15 18
M  V30 18 1 15 19
M  V30 19 1 16 20
M  V30 20 2 20 21
M  V30 21 1 20 22
M  V30 22 1 21 23
M  V30 23 2 22 24
M  V30 24 2 23 25
M  V30 25 1 25 26
M  V30 26 2 26 27
M  V30 27 1 26 28
M  V30 28 2 28 29
M  V30 29 1 28 30
M  V30 30 1 29 31
M  V30 31 2 30 32
M  V30 32 2 31 33
M  V30 33 1 7 9
M  V30 34 1 24 25
M  V30 35 1 32 33
M  V30 END BOND
M  V30 BEGIN COLLECTION
M  V30 MDLV30/STEABS ATOMS=(1 12)
M  V30 END COLLECTION
M  V30 END CTAB
M  END
>  <Molecule ChEMBL ID>
CHEMBL181644

>  <Smiles>
CO[C@@H](Cc1ccc(OCCCOc2ccc(C(=O)c3ccccc3)cc2)c(Cl)c1)C(=O)O

>  <IC50_nM>
5

>  <Assay Description>
Mean inhibitory concentration against human peroxisome proliferator-activated receptor gamma

$$$$
CHEMBL363532
Actelion Java MolfileCreator 2.0

  0  0  0  0  0  0              0 V3000
M  V30 BEGIN CTAB
M  V30 COUNTS 32 34 0 0 0
M  V30 BEGIN ATOM
M  V30 1 O 8.6602 -1.5 0.0 0
M  V30 2 C 7.7942 -2.0 0.0 0
M  V30 3 C 6.9282 -1.5 0.0 0
M  V30 4 C 7.7942 -3.0 0.0 0
M  V30 5 C 6.9282 -0.5 0.0 0
M  V30 6 C 6.0621 -2.0 0.0 0
M  V30 7 C 6.9282 -3.4999 0.0 0
M  V30 8 C 8.6602 -3.5 0.0 0
M  V30 9 C 6.0621 0.0 0.0 0
M  V30 10 C 5.1961 -1.5 0.0 0
M  V30 11 C 6.9282 -4.5 0.0 0
M  V30 12 C 8.6602 -4.5 0.0 0
M  V30 13 C 5.1961 -0.5 0.0 0
M  V30 14 C 7.7942 -5.0 0.0 0
M  V30 15 O 4.3301 0.0 0.0 0
M  V30 16 C 3.4641 -0.5 0.0 0
M  V30 17 C 2.598 0.0 0.0 0
M  V30 18 C 1.732 -0.5 0.0 0
M  V30 19 O 0.866 0.0 0.0 0
M  V30 20 C 0.0 -0.5 0.0 0
M  V30 21 C -0.866 0.0 0.0 0
M  V30 22 C 0.0 -1.4999 0.0 0
M  V30 23 C -1.732 -0.4999 0.0 0
M  V30 24 C -0.866 -1.9999 0.0 0
M  V30 25 C -1.732 -1.4999 0.0 0
M  V30 26 C -2.598 -1.9999 0.0 0
M  V30 27 C -2.598 -2.9999 0.0 0 CFG=2
M  V30 28 O -1.732 -3.4999 0.0 0
M  V30 29 C -3.4641 -3.4999 0.0 0
M  V30 30 C -0.866 -2.9999 0.0 0
M  V30 31 O -4.3301 -2.9999 0.0 0
M  V30 32 O -3.4641 -4.4999 0.0 0
M  V30 END ATOM
M  V30 BEGIN BOND
M  V30 1 2 1 2
M  V30 2 1 2 3
M  V30 3 1 2 4
M  V30 4 2 3 5
M  V30 5 1 3 6
M  V30 6 2 4 7
M  V30 7 1 4 8
M  V30 8 1 5 9
M  V30 9 2 6 10
M  V30 10 1 7 11
M  V30 11 2 8 12
M  V30 12 2 9 13
M  V30 13 2 11 14
M  V30 14 1 13 15
M  V30 15 1 15 16
M  V30 16 1 16 17
M  V30 17 1 17 18
M  V30 18 1 18 19
M  V30 19 1 19 20
M  V30 20 2 20 21
M  V30 21 1 20 22
M  V30 22 1 21 23
M  V30 23 2 22 24
M  V30 24 2 23 25
M  V30 25 1 25 26
M  V30 26 1 26 27
M  V30 27 1 27 28 CFG=3
M  V30 28 1 27 29
M  V30 29 1 28 30
M  V30 30 2 29 31
M  V30 31 1 29 32
M  V30 32 1 10 13
M  V30 33 1 12 14
M  V30 34 1 24 25
M  V30 END BOND
M  V30 BEGIN COLLECTION
M  V30 MDLV30/STEABS ATOMS=(1 27)
M  V30 END COLLECTION
M  V30 END CTAB
M  END
>  <Molecule ChEMBL ID>
CHEMBL363532

>  <Smiles>
CO[C@@H](Cc1ccc(OCCCOc2ccc(C(=O)c3ccccc3)cc2)cc1)C(=O)O

>  <IC50_nM>
5

>  <Assay Description>
Agonist activity at PPARgamma

$$$$
CHEMBL5282503
Actelion Java MolfileCreator 2.0

  0  0  0  0  0  0              0 V3000
M  V30 BEGIN CTAB
M  V30 COUNTS 34 37 0 0 0
M  V30 BEGIN ATOM
M  V30 1 Cl 6.0621 -1.9999 0.0 0
M  V30 2 C 5.1961 -1.4999 0.0 0
M  V30 3 C 5.1961 -0.5 0.0 0
M  V30 4 C 4.3301 -1.9999 0.0 0
M  V30 5 C 6.0621 0.0 0.0 0
M  V30 6 C 4.3301 0.0 0.0 0
M  V30 7 C 3.4641 -1.5 0.0 0
M  V30 8 O 6.0621 0.9999 0.0 0
M  V30 9 N 6.9282 -0.5 0.0 0
M  V30 10 C 3.4641 -0.5 0.0 0
M  V30 11 F 2.598 -2.0 0.0 0
M  V30 12 C 7.7942 0.0 0.0 0
M  V30 13 C 2.598 0.0 0.0 0
M  V30 14 N 8.6602 -0.5 0.0 0
M  V30 15 C 7.7942 0.9999 0.0 0
M  V30 16 O 2.598 1.0 0.0 0
M  V30 17 N 1.732 -0.5 0.0 0
M  V30 18 C 9.5262 0.0 0.0 0
M  V30 19 C 8.6602 1.4999 0.0 0
M  V30 20 C 6.9282 1.4999 0.0 0
M  V30 21 C 0.866 0.0 0.0 0
M  V30 22 C 9.5262 0.9999 0.0 0
M  V30 23 C 0.0 -0.5 0.0 0
M  V30 24 C 10.3923 1.4999 0.0 0
M  V30 25 C -0.866 0.0 0.0 0
M  V30 26 C 0.0 -1.4999 0.0 0
M  V30 27 C 11.3582 1.2411 0.0 0
M  V30 28 C 10.6511 2.4659 0.0 0
M  V30 29 C -1.732 -0.4999 0.0 0
M  V30 30 C -0.866 -1.9999 0.0 0
M  V30 31 O 11.617 2.2071 0.0 0
M  V30 32 F -2.598 0.0 0.0 0
M  V30 33 C -1.732 -1.4999 0.0 0
M  V30 34 F -2.598 -1.9999 0.0 0
M  V30 END ATOM
M  V30 BEGIN BOND
M  V30 1 1 1 2
M  V30 2 2 2 3
M  V30 3 1 2 4
M  V30 4 1 3 5
M  V30 5 1 3 6
M  V30 6 2 4 7
M  V30 7 2 5 8
M  V30 8 1 5 9
M  V30 9 2 6 10
M  V30 10 1 7 11
M  V30 11 1 9 12
M  V30 12 1 10 13
M  V30 13 2 12 14
M  V30 14 1 12 15
M  V30 15 2 13 16
M  V30 16 1 13 17
M  V30 17 1 14 18
M  V30 18 2 15 19
M  V30 19 1 15 20
M  V30 20 1 17 21
M  V30 21 2 18 22
M  V30 22 1 21 23
M  V30 23 1 22 24
M  V30 24 2 23 25
M  V30 25 1 23 26
M  V30 26 1 24 27
M  V30 27 1 24 28
M  V30 28 1 25 29
M  V30 29 2 26 30
M  V30 30 1 27 31
M  V30 31 1 29 32
M  V30 32 2 29 33
M  V30 33 1 33 34
M  V30 34 1 7 10
M  V30 35 1 19 22
M  V30 36 1 28 31
M  V30 37 1 30 33
M  V30 END BOND
M  V30 END CTAB
M  END
>  <Molecule ChEMBL ID>
CHEMBL5282503

>  <Smiles>
Cc1cc(C2COC2)cnc1NC(=O)c1cc(C(=O)NCc2ccc(F)c(F)c2)c(F)cc1Cl

>  <IC50_nM>
5

>  <Assay Description>
Inverse agonist activity at human PPARgamma in human RT112/84 transfected with NLuc-fused FABP4 assessed as reduction in PPARgamma transactivation incubated for 6 to 18 hrs by Nano-Glo luciferase assay

$$$$
CHEMBL558083
Actelion Java MolfileCreator 2.0

  0  0  0  0  0  0              0 V3000
M  V30 BEGIN CTAB
M  V30 COUNTS 39 42 0 0 0
M  V30 BEGIN ATOM
M  V30 1 Cl 6.0664 -5.852 0.0 0
M  V30 2 C 6.6542 -5.043 0.0 0
M  V30 3 C 7.6487 -5.1475 0.0 0
M  V30 4 C 6.2475 -4.1294 0.0 0
M  V30 5 C 8.2365 -4.3385 0.0 0
M  V30 6 C 6.8353 -3.3204 0.0 0
M  V30 7 C 7.8298 -3.4249 0.0 0
M  V30 8 C 8.4176 -2.6159 0.0 0
M  V30 9 O 9.4121 -2.7205 0.0 0
M  V30 10 C 8.0108 -1.7024 0.0 0
M  V30 11 C 8.5108 -0.8364 0.0 0
M  V30 12 C 7.0327 -1.4945 0.0 0
M  V30 13 C 7.8417 -0.0932 0.0 0
M  V30 14 C 9.489 -0.6284 0.0 0
M  V30 15 N 6.9282 -0.5 0.0 0
M  V30 16 C 6.2895 -2.1636 0.0 0
M  V30 17 C 8.1507 0.8577 0.0 0
M  V30 18 C 9.798 0.3225 0.0 0
M  V30 19 C 6.0621 0.0 0.0 0
M  V30 20 C 9.1289 1.0657 0.0 0
M  V30 21 C 5.1961 -0.5 0.0 0
M  V30 22 O 9.4379 2.0167 0.0 0
M  V30 23 C 4.3301 0.0 0.0 0
M  V30 24 C 5.1961 -1.4999 0.0 0
M  V30 25 C 8.7687 2.7599 0.0 0
M  V30 26 C 3.4641 -0.5 0.0 0
M  V30 27 C 4.3301 -1.9999 0.0 0
M  V30 28 F 8.0256 2.0907 0.0 0
M  V30 29 F 8.0996 3.503 0.0 0
M  V30 30 F 9.5119 3.429 0.0 0
M  V30 31 O 2.598 0.0 0.0 0
M  V30 32 C 3.4641 -1.4999 0.0 0
M  V30 33 C 1.732 -0.5 0.0 0 CFG=1
M  V30 34 C 1.732 -1.5 0.0 0
M  V30 35 C 0.866 0.0 0.0 0
M  V30 36 C 2.598 -0.9999 0.0 0
M  V30 37 O 2.598 -2.0 0.0 0
M  V30 38 O 0.866 -1.9999 0.0 0
M  V30 39 C 0.0 -0.5 0.0 0
M  V30 END ATOM
M  V30 BEGIN BOND
M  V30 1 1 1 2
M  V30 2 2 2 3
M  V30 3 1 2 4
M  V30 4 1 3 5
M  V30 5 2 4 6
M  V30 6 2 5 7
M  V30 7 1 7 8
M  V30 8 2 8 9
M  V30 9 1 8 10
M  V30 10 1 10 11
M  V30 11 2 10 12
M  V30 12 2 11 13
M  V30 13 1 11 14
M  V30 14 1 12 15
M  V30 15 1 12 16
M  V30 16 1 13 17
M  V30 17 2 14 18
M  V30 18 1 15 19
M  V30 19 2 17 20
M  V30 20 1 19 21
M  V30 21 1 20 22
M  V30 22 2 21 23
M  V30 23 1 21 24
M  V30 24 1 22 25
M  V30 25 1 23 26
M  V30 26 2 24 27
M  V30 27 1 25 28
M  V30 28 1 25 29
M  V30 29 1 25 30
M  V30 30 1 26 31
M  V30 31 2 26 32
M  V30 32 1 31 33
M  V30 33 1 33 34
M  V30 34 1 33 35
M  V30 35 1 33 36 CFG=3
M  V30 36 2 34 37
M  V30 37 1 34 38
M  V30 38 1 35 39
M  V30 39 1 6 7
M  V30 40 1 13 15
M  V30 41 1 18 20
M  V30 42 1 27 32
M  V30 END BOND
M  V30 BEGIN COLLECTION
M  V30 MDLV30/STEABS ATOMS=(1 33)
M  V30 END COLLECTION
M  V30 END CTAB
M  END
>  <Molecule ChEMBL ID>
CHEMBL558083

>  <Smiles>
CC[C@@](C)(Oc1cccc(Cn2c(C)c(C(=O)c3ccc(Cl)cc3)c3ccc(OC(F)(F)F)cc32)c1)C(=O)O

>  <IC50_nM>
5

>  <Assay Description>
Inhibition of human PPARgamma receptor by scintillation proximity assay

$$$$
CHEMBL485188
Actelion Java MolfileCreator 2.0

  0  0  0  0  0  0              0 V3000
M  V30 BEGIN CTAB
M  V30 COUNTS 37 41 0 0 0
M  V30 BEGIN ATOM
M  V30 1 S 5.3804 2.5036 0.0 0
M  V30 2 C 6.4951 1.5 0.0 0
M  V30 3 C 5.9905 3.874 0.0 0
M  V30 4 C 6.4951 0.0 0.0 0
M  V30 5 C 7.7942 2.25 0.0 0
M  V30 6 C 7.4823 3.7172 0.0 0
M  V30 7 C 7.7942 -0.7499 0.0 0
M  V30 8 C 5.1961 -0.75 0.0 0
M  V30 9 C 9.0932 1.4999 0.0 0
M  V30 10 C 9.0932 0.0 0.0 0
M  V30 11 C 5.1961 -2.25 0.0 0 CFG=2
M  V30 12 O 10.3923 2.2499 0.0 0
M  V30 13 O 3.8971 -3.0 0.0 0
M  V30 14 C 6.4951 -3.0 0.0 0
M  V30 15 C 10.3923 3.75 0.0 0
M  V30 16 C 3.8971 -4.5 0.0 0
M  V30 17 O 7.7942 -2.25 0.0 0
M  V30 18 O 6.4951 -4.5 0.0 0
M  V30 19 C 11.6913 4.5 0.0 0
M  V30 20 C 2.598 -5.25 0.0 0
M  V30 21 C 11.6913 6.0 0.0 0
M  V30 22 C 1.848 -6.549 0.0 0
M  V30 23 C 1.098 -5.25 0.0 0
M  V30 24 N 12.9048 6.8816 0.0 0
M  V30 25 C 10.4778 6.8816 0.0 0
M  V30 26 C 12.4413 8.3082 0.0 0
M  V30 27 O 10.9413 8.3082 0.0 0
M  V30 28 C 9.0512 6.4181 0.0 0
M  V30 29 C 13.323 9.5217 0.0 0
M  V30 30 C 14.8148 9.3649 0.0 0
M  V30 31 C 12.7129 10.8921 0.0 0
M  V30 32 C 15.6964 10.5785 0.0 0
M  V30 33 C 13.5945 12.1056 0.0 0
M  V30 34 C 15.0863 11.9488 0.0 0
M  V30 35 C 15.968 13.1623 0.0 0
M  V30 36 C 17.4598 13.0055 0.0 0
M  V30 37 C 15.3579 14.5326 0.0 0
M  V30 END ATOM
M  V30 BEGIN BOND
M  V30 1 1 1 2
M  V30 2 1 1 3
M  V30 3 2 2 4
M  V30 4 1 2 5
M  V30 5 2 3 6
M  V30 6 1 4 7
M  V30 7 1 4 8
M  V30 8 2 5 9
M  V30 9 2 7 10
M  V30 10 1 8 11
M  V30 11 1 9 12
M  V30 12 1 11 13 CFG=1
M  V30 13 1 11 14
M  V30 14 1 12 15
M  V30 15 1 13 16
M  V30 16 2 14 17
M  V30 17 1 14 18
M  V30 18 1 15 19
M  V30 19 1 16 20
M  V30 20 1 19 21
M  V30 21 1 20 22
M  V30 22 1 20 23
M  V30 23 1 21 24
M  V30 24 2 21 25
M  V30 25 2 24 26
M  V30 26 1 25 27
M  V30 27 1 25 28
M  V30 28 1 26 29
M  V30 29 2 29 30
M  V30 30 1 29 31
M  V30 31 1 30 32
M  V30 32 2 31 33
M  V30 33 2 32 34
M  V30 34 1 34 35
M  V30 35 1 35 36
M  V30 36 1 35 37
M  V30 37 1 5 6
M  V30 38 1 9 10
M  V30 39 1 22 23
M  V30 40 1 26 27
M  V30 41 1 33 34
M  V30 END BOND
M  V30 BEGIN COLLECTION
M  V30 MDLV30/STEABS ATOMS=(1 11)
M  V30 END COLLECTION
M  V30 END CTAB
M  END
>  <Molecule ChEMBL ID>
CHEMBL485188

>  <Smiles>
Cc1oc(-c2ccc(C(C)C)cc2)nc1CCOc1ccc(C[C@H](OCC2CC2)C(=O)O)c2sccc12

>  <IC50_nM>
5

>  <Assay Description>
Displacement of radio labeled 2(S)-(2-benzoyl-phenylamino)-3-{4-[1,1-ditritio-2-(5-methyl-2-phenyl-oxazol-4-yl)-ethoxy]-phenyl}-propionic acid from GST-fused human PPARgamma expressed in Escherichia coli BL21 cells by scintillation proximity assay

$$$$
CHEMBL455127
Actelion Java MolfileCreator 2.0

  0  0  0  0  0  0              0 V3000
M  V30 BEGIN CTAB
M  V30 COUNTS 34 37 0 0 0
M  V30 BEGIN ATOM
M  V30 1 F 6.0621 -1.9999 0.0 0
M  V30 2 C 5.1961 -1.4999 0.0 0
M  V30 3 C 5.1961 -0.5 0.0 0
M  V30 4 C 4.3301 -1.9999 0.0 0
M  V30 5 C 4.3301 0.0 0.0 0
M  V30 6 C 6.0621 0.0 0.0 0
M  V30 7 C 3.4641 -1.5 0.0 0
M  V30 8 C 3.4641 -0.5 0.0 0
M  V30 9 N 6.0621 0.9999 0.0 0
M  V30 10 O 2.598 0.0 0.0 0
M  V30 11 C 6.8711 1.5877 0.0 0
M  V30 12 C 5.2531 1.5877 0.0 0
M  V30 13 C 1.732 -0.5 0.0 0 CFG=2
M  V30 14 N 7.8493 1.3798 0.0 0
M  V30 15 C 6.5621 2.5388 0.0 0
M  V30 16 C 5.5621 2.5388 0.0 0
M  V30 17 C 4.3021 1.2787 0.0 0
M  V30 18 C 0.866 0.0 0.0 0
M  V30 19 C 1.732 -1.5 0.0 0
M  V30 20 C 8.5184 2.123 0.0 0
M  V30 21 C 7.2313 3.2819 0.0 0
M  V30 22 C 4.9743 3.3478 0.0 0
M  V30 23 O 0.866 1.0 0.0 0
M  V30 24 O 0.0 -0.5 0.0 0
M  V30 25 C 8.2094 3.074 0.0 0
M  V30 26 O 5.3811 4.2614 0.0 0
M  V30 27 C 3.9798 3.2433 0.0 0
M  V30 28 C 3.392 4.0523 0.0 0
M  V30 29 C 3.5731 2.3297 0.0 0
M  V30 30 C 2.3975 3.9478 0.0 0
M  V30 31 C 2.5786 2.2252 0.0 0
M  V30 32 C 1.9908 3.0342 0.0 0
M  V30 33 O 0.9963 2.9297 0.0 0
M  V30 34 C 0.5895 2.0161 0.0 0
M  V30 END ATOM
M  V30 BEGIN BOND
M  V30 1 1 1 2
M  V30 2 2 2 3
M  V30 3 1 2 4
M  V30 4 1 3 5
M  V30 5 1 3 6
M  V30 6 2 4 7
M  V30 7 2 5 8
M  V30 8 1 6 9
M  V30 9 1 8 10
M  V30 10 1 9 11
M  V30 11 1 9 12
M  V30 12 1 10 13
M  V30 13 2 11 14
M  V30 14 1 11 15
M  V30 15 2 12 16
M  V30 16 1 12 17
M  V30 17 1 13 18
M  V30 18 1 13 19 CFG=1
M  V30 19 1 14 20
M  V30 20 2 15 21
M  V30 21 1 16 22
M  V30 22 2 18 23
M  V30 23 1 18 24
M  V30 24 2 20 25
M  V30 25 2 22 26
M  V30 26 1 22 27
M  V30 27 2 27 28
M  V30 28 1 27 29
M  V30 29 1 28 30
M  V30 30 2 29 31
M  V30 31 2 30 32
M  V30 32 1 32 33
M  V30 33 1 33 34
M  V30 34 1 7 8
M  V30 35 1 15 16
M  V30 36 1 21 25
M  V30 37 1 31 32
M  V30 END BOND
M  V30 BEGIN COLLECTION
M  V30 MDLV30/STEABS ATOMS=(1 13)
M  V30 END COLLECTION
M  V30 END CTAB
M  END
>  <Molecule ChEMBL ID>
CHEMBL455127

>  <Smiles>
COc1ccc(C(=O)c2c(C)n(Cc3cc(O[C@@H](C)C(=O)O)ccc3F)c3ncccc23)cc1

>  <IC50_nM>
5

>  <Assay Description>
Displacement of [3H]2AD-5075 from GST-tagged human PPARgamma receptor expressed in Escherichia coli BL21

$$$$
CHEMBL212911
Actelion Java MolfileCreator 2.0

  0  0  0  0  0  0              0 V3000
M  V30 BEGIN CTAB
M  V30 COUNTS 34 36 0 0 0
M  V30 BEGIN ATOM
M  V30 1 O 5.1961 1.5 0.0 0
M  V30 2 C 6.0621 1.0 0.0 0
M  V30 3 C 6.0621 0.0 0.0 0
M  V30 4 C 6.9282 1.5 0.0 0
M  V30 5 C 5.1961 -0.5 0.0 0
M  V30 6 C 6.9282 -0.4999 0.0 0
M  V30 7 C 7.7942 0.9999 0.0 0
M  V30 8 C 6.9282 2.4999 0.0 0
M  V30 9 O 4.3301 0.0 0.0 0
M  V30 10 C 5.1961 -1.4999 0.0 0
M  V30 11 C 6.9282 -1.4999 0.0 0
M  V30 12 C 8.6602 1.4999 0.0 0
M  V30 13 C 7.7942 2.9999 0.0 0
M  V30 14 C 3.4641 -0.5 0.0 0 CFG=1
M  V30 15 C 6.0621 -1.9999 0.0 0
M  V30 16 C 7.7942 -1.9999 0.0 0
M  V30 17 C 8.6602 2.4999 0.0 0
M  V30 18 C 2.598 0.0 0.0 0
M  V30 19 C 3.4641 -1.5 0.0 0
M  V30 20 C 8.6602 -1.4999 0.0 0
M  V30 21 C 1.732 -0.5 0.0 0
M  V30 22 O 0.866 0.0 0.0 0
M  V30 23 C 0.0 -0.5 0.0 0
M  V30 24 C -0.866 0.0 0.0 0
M  V30 25 C 0.0 -1.4999 0.0 0
M  V30 26 C -1.732 -0.4999 0.0 0
M  V30 27 C -0.866 -1.9999 0.0 0
M  V30 28 C -1.732 -1.4999 0.0 0
M  V30 29 C -2.598 0.0 0.0 0
M  V30 30 C -2.598 -1.9999 0.0 0
M  V30 31 C -2.598 -2.9999 0.0 0
M  V30 32 C -3.4641 -3.4999 0.0 0
M  V30 33 O -4.3301 -2.9999 0.0 0
M  V30 34 O -3.4641 -4.4999 0.0 0
M  V30 END ATOM
M  V30 BEGIN BOND
M  V30 1 2 1 2
M  V30 2 1 2 3
M  V30 3 1 2 4
M  V30 4 2 3 5
M  V30 5 1 3 6
M  V30 6 2 4 7
M  V30 7 1 4 8
M  V30 8 1 5 9
M  V30 9 1 5 10
M  V30 10 2 6 11
M  V30 11 1 7 12
M  V30 12 2 8 13
M  V30 13 1 9 14
M  V30 14 2 10 15
M  V30 15 1 11 16
M  V30 16 2 12 17
M  V30 17 1 14 18
M  V30 18 1 14 19 CFG=3
M  V30 19 1 16 20
M  V30 20 1 18 21
M  V30 21 1 21 22
M  V30 22 1 22 23
M  V30 23 2 23 24
M  V30 24 1 23 25
M  V30 25 1 24 26
M  V30 26 2 25 27
M  V30 27 2 26 28
M  V30 28 1 26 29
M  V30 29 1 28 30
M  V30 30 1 30 31
M  V30 31 1 31 32
M  V30 32 2 32 33
M  V30 33 1 32 34
M  V30 34 1 11 15
M  V30 35 1 13 17
M  V30 36 1 27 28
M  V30 END BOND
M  V30 BEGIN COLLECTION
M  V30 MDLV30/STEABS ATOMS=(1 14)
M  V30 END COLLECTION
M  V30 END CTAB
M  END
>  <Molecule ChEMBL ID>
CHEMBL212911

>  <Smiles>
CCc1ccc(O[C@H](C)CCOc2ccc(CCC(=O)O)c(C)c2)c(C(=O)c2ccccc2)c1

>  <IC50_nM>
5

>  <Assay Description>
Displacement of [3H]2-methyl-2-(4-{3-[propyl-(5-pyridin-2-yl-thiophene-2-sulfonyl)-amino]-propyl}-phenoxy)-propionic acid from human PPARgamma by SPA

$$$$
CHEMBL491751
Actelion Java MolfileCreator 2.0

  0  0  0  0  0  0              0 V3000
M  V30 BEGIN CTAB
M  V30 COUNTS 37 41 0 0 0
M  V30 BEGIN ATOM
M  V30 1 O 5.7543 -3.8109 0.0 0
M  V30 2 C 6.4974 -3.1418 0.0 0
M  V30 3 O 7.4485 -3.4508 0.0 0
M  V30 4 C 6.2895 -2.1636 0.0 0
M  V30 5 C 7.0327 -1.4945 0.0 0
M  V30 6 N 8.0108 -1.7024 0.0 0
M  V30 7 C 6.9282 -0.5 0.0 0
M  V30 8 N 8.5108 -0.8364 0.0 0
M  V30 9 N 7.8417 -0.0932 0.0 0
M  V30 10 C 6.0621 0.0 0.0 0
M  V30 11 C 9.5054 -0.7318 0.0 0
M  V30 12 C 5.1961 -0.5 0.0 0
M  V30 13 C 10.0931 -1.5408 0.0 0
M  V30 14 C 9.9121 0.1816 0.0 0
M  V30 15 C 4.3301 0.0 0.0 0
M  V30 16 C 5.1961 -1.4999 0.0 0
M  V30 17 C 11.0877 -1.4363 0.0 0
M  V30 18 C 10.9066 0.2861 0.0 0
M  V30 19 C 3.4641 -0.5 0.0 0
M  V30 20 C 4.3301 -1.9999 0.0 0
M  V30 21 C 11.4944 -0.5228 0.0 0
M  V30 22 O 2.598 0.0 0.0 0
M  V30 23 C 3.4641 -1.4999 0.0 0
M  V30 24 C 1.732 -0.5 0.0 0
M  V30 25 C 0.866 0.0 0.0 0
M  V30 26 C 0.0 -0.5 0.0 0
M  V30 27 N -0.9135 -0.0932 0.0 0
M  V30 28 C -0.1045 -1.4945 0.0 0
M  V30 29 C -1.5826 -0.8364 0.0 0
M  V30 30 O -1.0826 -1.7024 0.0 0
M  V30 31 C 0.6386 -2.1636 0.0 0
M  V30 32 C -2.5771 -0.7318 0.0 0
M  V30 33 C -2.9839 0.1816 0.0 0
M  V30 34 C -3.1649 -1.5408 0.0 0
M  V30 35 C -3.9784 0.2861 0.0 0
M  V30 36 C -4.1595 -1.4363 0.0 0
M  V30 37 C -4.5662 -0.5228 0.0 0
M  V30 END ATOM
M  V30 BEGIN BOND
M  V30 1 2 1 2
M  V30 2 1 2 3
M  V30 3 1 2 4
M  V30 4 1 4 5
M  V30 5 2 5 6
M  V30 6 1 5 7
M  V30 7 1 6 8
M  V30 8 2 7 9
M  V30 9 1 7 10
M  V30 10 1 8 11
M  V30 11 1 10 12
M  V30 12 2 11 13
M  V30 13 1 11 14
M  V30 14 2 12 15
M  V30 15 1 12 16
M  V30 16 1 13 17
M  V30 17 2 14 18
M  V30 18 1 15 19
M  V30 19 2 16 20
M  V30 20 2 17 21
M  V30 21 1 19 22
M  V30 22 2 19 23
M  V30 23 1 22 24
M  V30 24 1 24 25
M  V30 25 1 25 26
M  V30 26 1 26 27
M  V30 27 2 26 28
M  V30 28 2 27 29
M  V30 29 1 28 30
M  V30 30 1 28 31
M  V30 31 1 29 32
M  V30 32 2 32 33
M  V30 33 1 32 34
M  V30 34 1 33 35
M  V30 35 2 34 36
M  V30 36 2 35 37
M  V30 37 1 8 9
M  V30 38 1 18 21
M  V30 39 1 20 23
M  V30 40 1 29 30
M  V30 41 1 36 37
M  V30 END BOND
M  V30 END CTAB
M  END
>  <Molecule ChEMBL ID>
CHEMBL491751

>  <Smiles>
Cc1oc(-c2ccccc2)nc1CCOc1cccc(Cc2nn(-c3ccccc3)nc2CC(=O)O)c1

>  <IC50_nM>
5

>  <Assay Description>
Binding affinity to PPARgamma by fluorescence polarization assay

$$$$
CHEMBL593796
Actelion Java MolfileCreator 2.0

  0  0  0  0  0  0              0 V3000
M  V30 BEGIN CTAB
M  V30 COUNTS 31 34 0 0 0
M  V30 BEGIN ATOM
M  V30 1 O 6.9282 -4.5 0.0 0
M  V30 2 C 6.9282 -3.5 0.0 0
M  V30 3 O 7.7942 -3.0 0.0 0
M  V30 4 C 6.0621 -3.0 0.0 0 CFG=1
M  V30 5 N 5.1961 -3.5 0.0 0
M  V30 6 C 6.0621 -1.9999 0.0 0
M  V30 7 N 4.2826 -3.0932 0.0 0
M  V30 8 N 5.0916 -4.4945 0.0 0
M  V30 9 C 5.1961 -1.4999 0.0 0
M  V30 10 C 3.6134 -3.8364 0.0 0
M  V30 11 C 4.1134 -4.7024 0.0 0
M  V30 12 C 5.1961 -0.5 0.0 0
M  V30 13 C 4.3301 -1.9999 0.0 0
M  V30 14 C 4.3301 0.0 0.0 0
M  V30 15 C 3.4641 -1.5 0.0 0
M  V30 16 C 3.4641 -0.5 0.0 0
M  V30 17 C 2.598 0.0 0.0 0
M  V30 18 C 1.732 -0.5 0.0 0
M  V30 19 C 0.866 0.0 0.0 0
M  V30 20 C 0.0 -0.5 0.0 0
M  V30 21 N -0.9135 -0.0932 0.0 0
M  V30 22 C -0.1045 -1.4945 0.0 0
M  V30 23 C -1.5826 -0.8364 0.0 0
M  V30 24 O -1.0826 -1.7024 0.0 0
M  V30 25 C 0.6386 -2.1636 0.0 0
M  V30 26 C -2.5771 -0.7318 0.0 0
M  V30 27 C -2.9839 0.1816 0.0 0
M  V30 28 C -3.1649 -1.5408 0.0 0
M  V30 29 C -3.9784 0.2861 0.0 0
M  V30 30 C -4.1595 -1.4363 0.0 0
M  V30 31 C -4.5662 -0.5228 0.0 0
M  V30 END ATOM
M  V30 BEGIN BOND
M  V30 1 2 1 2
M  V30 2 1 2 3
M  V30 3 1 2 4
M  V30 4 1 4 5 CFG=1
M  V30 5 1 4 6
M  V30 6 1 5 7
M  V30 7 1 5 8
M  V30 8 1 6 9
M  V30 9 2 7 10
M  V30 10 2 8 11
M  V30 11 2 9 12
M  V30 12 1 9 13
M  V30 13 1 12 14
M  V30 14 2 13 15
M  V30 15 2 14 16
M  V30 16 1 16 17
M  V30 17 1 17 18
M  V30 18 1 18 19
M  V30 19 1 19 20
M  V30 20 1 20 21
M  V30 21 2 20 22
M  V30 22 2 21 23
M  V30 23 1 22 24
M  V30 24 1 22 25
M  V30 25 1 23 26
M  V30 26 2 26 27
M  V30 27 1 26 28
M  V30 28 1 27 29
M  V30 29 2 28 30
M  V30 30 2 29 31
M  V30 31 1 10 11
M  V30 32 1 15 16
M  V30 33 1 23 24
M  V30 34 1 30 31
M  V30 END BOND
M  V30 BEGIN COLLECTION
M  V30 MDLV30/STERAC1 ATOMS=(1 4)
M  V30 END COLLECTION
M  V30 END CTAB
M  END
>  <Molecule ChEMBL ID>
CHEMBL593796

>  <Smiles>
Cc1oc(-c2ccccc2)nc1CCCc1ccc(CC(C(=O)O)n2nccn2)cc1

>  <IC50_nM>
5

>  <Assay Description>
Displacement of [3H2]nTZD3 from GST-tagged human PPARgamma expressed in Escherichia coli by SPA

$$$$
CHEMBL3695908
Actelion Java MolfileCreator 2.0

  0  0  0  0  0  0              0 V3000
M  V30 BEGIN CTAB
M  V30 COUNTS 37 41 0 0 0
M  V30 BEGIN ATOM
M  V30 1 O 6.2419 7.3426 0.0 0
M  V30 2 C 5.9328 6.3916 0.0 0
M  V30 3 O 4.9547 6.1837 0.0 0
M  V30 4 C 6.602 5.6484 0.0 0
M  V30 5 C 6.293 4.6974 0.0 0
M  V30 6 C 7.5801 5.8563 0.0 0
M  V30 7 C 6.9621 3.9542 0.0 0
M  V30 8 C 8.2493 5.1132 0.0 0
M  V30 9 C 7.9402 4.1621 0.0 0
M  V30 10 C 8.6094 3.419 0.0 0
M  V30 11 C 8.3003 2.4679 0.0 0
M  V30 12 C 9.5875 3.6269 0.0 0
M  V30 13 C 8.9695 1.7248 0.0 0
M  V30 14 C 7.3222 2.26 0.0 0
M  V30 15 C 10.2566 2.8838 0.0 0
M  V30 16 C 9.9476 1.9327 0.0 0
M  V30 17 N 7.0132 1.309 0.0 0
M  V30 18 C 6.0621 0.9999 0.0 0
M  V30 19 C 7.601 0.5 0.0 0
M  V30 20 C 6.0621 0.0 0.0 0
M  V30 21 C 5.1961 1.4999 0.0 0
M  V30 22 C 7.0132 -0.309 0.0 0
M  V30 23 C 5.1961 -0.5 0.0 0
M  V30 24 C 4.3301 0.9999 0.0 0
M  V30 25 C 4.3301 0.0 0.0 0
M  V30 26 C 3.4641 -0.5 0.0 0
M  V30 27 O 3.4641 -1.5 0.0 0
M  V30 28 N 2.598 0.0 0.0 0
M  V30 29 C 1.732 -0.5 0.0 0 CFG=1
M  V30 30 C 1.732 -1.5 0.0 0
M  V30 31 C 0.866 0.0 0.0 0
M  V30 32 C 0.866 -1.9999 0.0 0
M  V30 33 C 2.598 -2.0 0.0 0
M  V30 34 C 0.0 -0.5 0.0 0
M  V30 35 C 0.866 -2.9999 0.0 0
M  V30 36 C 2.598 -3.0 0.0 0
M  V30 37 C 1.732 -3.5 0.0 0
M  V30 END ATOM
M  V30 BEGIN BOND
M  V30 1 2 1 2
M  V30 2 1 2 3
M  V30 3 1 2 4
M  V30 4 2 4 5
M  V30 5 1 4 6
M  V30 6 1 5 7
M  V30 7 2 6 8
M  V30 8 2 7 9
M  V30 9 1 9 10
M  V30 10 2 10 11
M  V30 11 1 10 12
M  V30 12 1 11 13
M  V30 13 1 11 14
M  V30 14 2 12 15
M  V30 15 2 13 16
M  V30 16 1 14 17
M  V30 17 1 17 18
M  V30 18 1 17 19
M  V30 19 2 18 20
M  V30 20 1 18 21
M  V30 21 2 19 22
M  V30 22 1 20 23
M  V30 23 2 21 24
M  V30 24 2 23 25
M  V30 25 1 25 26
M  V30 26 2 26 27
M  V30 27 1 26 28
M  V30 28 1 29 28 CFG=1
M  V30 29 1 29 30
M  V30 30 1 29 31
M  V30 31 2 30 32
M  V30 32 1 30 33
M  V30 33 1 31 34
M  V30 34 1 32 35
M  V30 35 2 33 36
M  V30 36 2 35 37
M  V30 37 1 8 9
M  V30 38 1 15 16
M  V30 39 1 20 22
M  V30 40 1 24 25
M  V30 41 1 36 37
M  V30 END BOND
M  V30 BEGIN COLLECTION
M  V30 MDLV30/STEABS ATOMS=(1 29)
M  V30 END COLLECTION
M  V30 END CTAB
M  END
>  <Molecule ChEMBL ID>
CHEMBL3695908

>  <Smiles>
CC[C@@H](NC(=O)c1ccc2c(ccn2Cc2ccccc2-c2ccc(C(=O)O)cc2)c1)c1ccccc1

>  <IC50_nM>
5

>  <Assay Description>
Lanthascreen Competitive Binding Assay: The assay was performed according to manufacturer protocol. A mixture of nM GST-PPARG-LBD, 5 nM Tb-GST-antibody, 5 nM Fluormone Pan-PPAR Green, and serial dilutions of the experimental compound, beginning at 10 ׬M downwards, was added to wells of black 384-well low-volume plates (Greiner) to a total volume of 18 ׬L. All dilutions were made in TR-FRET assay buffer C. DMSO at 2% final concentration was used as a no-ligand control. Experiment was performed in triplicate, and incubated for 2 hours in the dark prior to assay read in Perkin Elmer ViewLux ultra HTS microplate reader. FRET signal was measured by excitation at 340 nm and emission at 520 nm for fluorescein and 490 nm for terbium. Fold change over DMSO was calculated using GraphPad Prism Software (La Jolla, Calif.) by calculating 520 nm/490 nm ratio. Graphs were plotted as fold change of FRET signal for compound treatment over DMSO-only control.

$$$$
CHEMBL3678130
Actelion Java MolfileCreator 2.0

  0  0  0  0  0  0              0 V3000
M  V30 BEGIN CTAB
M  V30 COUNTS 40 43 0 0 0
M  V30 BEGIN ATOM
M  V30 1 Cl 4.3301 0.9999 0.0 0
M  V30 2 C 4.3301 0.0 0.0 0
M  V30 3 C 3.4641 -0.5 0.0 0
M  V30 4 C 5.1961 -0.5 0.0 0
M  V30 5 O 2.598 0.0 0.0 0
M  V30 6 C 3.4641 -1.5 0.0 0
M  V30 7 C 5.1961 -1.5 0.0 0
M  V30 8 C 1.732 -0.5 0.0 0 CFG=2
M  V30 9 C 4.3301 -2.0 0.0 0
M  V30 10 C 0.866 0.0 0.0 0
M  V30 11 C 1.732 -1.5 0.0 0
M  V30 12 C 4.3301 -3.0 0.0 0
M  V30 13 O 0.866 1.0 0.0 0
M  V30 14 O 0.0 -0.5 0.0 0
M  V30 15 N 5.1961 -3.5 0.0 0
M  V30 16 C 5.3006 -4.4945 0.0 0
M  V30 17 C 6.1096 -3.0932 0.0 0
M  V30 18 C 6.2788 -4.7024 0.0 0
M  V30 19 C 4.6315 -5.2376 0.0 0
M  V30 20 C 6.7788 -3.8364 0.0 0
M  V30 21 C 6.3176 -2.1151 0.0 0
M  V30 22 C 6.5878 -5.6534 0.0 0
M  V30 23 C 4.9405 -6.1887 0.0 0
M  V30 24 C 7.7733 -3.7318 0.0 0
M  V30 25 C 5.9187 -6.3966 0.0 0
M  V30 26 C 6.2277 -7.3476 0.0 0
M  V30 27 O 5.5586 -8.0908 0.0 0
M  V30 28 N 7.2058 -7.5556 0.0 0
M  V30 29 C 7.5148 -8.5066 0.0 0 CFG=2
M  V30 30 C 6.8457 -9.2498 0.0 0
M  V30 31 C 8.493 -8.7145 0.0 0
M  V30 32 C 5.8676 -9.0418 0.0 0
M  V30 33 C 7.1547 -10.2008 0.0 0
M  V30 34 C 5.1984 -9.785 0.0 0
M  V30 35 C 6.4856 -10.944 0.0 0
M  V30 36 O 4.2203 -9.5771 0.0 0
M  V30 37 C 5.5075 -10.736 0.0 0
M  V30 38 C 3.9113 -8.626 0.0 0
M  V30 39 C 4.5804 -7.8829 0.0 0
M  V30 40 C 2.9331 -8.4181 0.0 0
M  V30 END ATOM
M  V30 BEGIN BOND
M  V30 1 1 1 2
M  V30 2 2 2 3
M  V30 3 1 2 4
M  V30 4 1 3 5
M  V30 5 1 3 6
M  V30 6 2 4 7
M  V30 7 1 5 8
M  V30 8 2 6 9
M  V30 9 1 8 10
M  V30 10 1 8 11 CFG=1
M  V30 11 1 9 12
M  V30 12 2 10 13
M  V30 13 1 10 14
M  V30 14 1 12 15
M  V30 15 1 15 16
M  V30 16 1 15 17
M  V30 17 2 16 18
M  V30 18 1 16 19
M  V30 19 2 17 20
M  V30 20 1 17 21
M  V30 21 1 18 22
M  V30 22 2 19 23
M  V30 23 1 20 24
M  V30 24 2 22 25
M  V30 25 1 25 26
M  V30 26 2 26 27
M  V30 27 1 26 28
M  V30 28 1 28 29
M  V30 29 1 29 30
M  V30 30 1 29 31 CFG=1
M  V30 31 2 30 32
M  V30 32 1 30 33
M  V30 33 1 32 34
M  V30 34 2 33 35
M  V30 35 1 34 36
M  V30 36 2 34 37
M  V30 37 1 36 38
M  V30 38 1 38 39
M  V30 39 1 38 40
M  V30 40 1 7 9
M  V30 41 1 18 20
M  V30 42 1 23 25
M  V30 43 1 35 37
M  V30 END BOND
M  V30 BEGIN COLLECTION
M  V30 MDLV30/STEABS ATOMS=(2 8 29)
M  V30 END COLLECTION
M  V30 END CTAB
M  END
>  <Molecule ChEMBL ID>
CHEMBL3678130

>  <Smiles>
Cc1c(C)n(Cc2ccc(Cl)c(O[C@@H](C)C(=O)O)c2)c2ccc(C(=O)N[C@@H](C)c3cccc(OC(C)C)c3)cc12

>  <IC50_nM>
5

>  <Assay Description>
Lanthascreen Competitive Binding Assay: The assay was performed according to manufacturer protocol. A mixture of 5 nM GST-PPARG-LBD, 5 nM Tb-GST-antibody, 5 nM Fluormone Pan- PPAR Green, and serial dilutions of the experimental compound, beginning at 10 ׬� downwards, was added to wells of black 384-well low- volume plates (Greiner) to a total volume of 18 xL. All dilutions were made in TR-FRET assay buffer C. DMSO at 2% final concentration was used as a no-ligand control. Experiment was performed in triplicate, and incubated for 2 hours in the dark prior to assay read in Perkin Elmer ViewLux ultra HTS microplate reader. FRET signal was measured by excitation at 340 nm and emission at 520 nm for fluorescein and 490 nm for terbium.

$$$$
CHEMBL3699397
Actelion Java MolfileCreator 2.0

  0  0  0  0  0  0              0 V3000
M  V30 BEGIN CTAB
M  V30 COUNTS 41 45 0 0 0
M  V30 BEGIN ATOM
M  V30 1 O 11.8592 -3.5669 0.0 0
M  V30 2 C 10.8811 -3.7748 0.0 0
M  V30 3 O 10.212 -3.0316 0.0 0
M  V30 4 C 10.5721 -4.7258 0.0 0
M  V30 5 C 9.5939 -4.9337 0.0 0
M  V30 6 C 11.2412 -5.469 0.0 0
M  V30 7 C 8.9248 -4.1906 0.0 0
M  V30 8 C 9.2849 -5.8848 0.0 0
M  V30 9 C 10.9322 -6.42 0.0 0
M  V30 10 C 9.2338 -3.2395 0.0 0
M  V30 11 C 7.9466 -4.3985 0.0 0
M  V30 12 C 9.954 -6.6279 0.0 0
M  V30 13 C 8.5647 -2.4964 0.0 0
M  V30 14 C 7.2775 -3.6554 0.0 0
M  V30 15 C 7.5865 -2.7043 0.0 0
M  V30 16 C 6.9174 -1.9612 0.0 0
M  V30 17 N 5.9392 -2.1691 0.0 0
M  V30 18 C 5.1961 -1.4999 0.0 0
M  V30 19 C 5.5325 -3.0826 0.0 0
M  V30 20 C 4.3301 -1.9999 0.0 0
M  V30 21 C 5.1961 -0.4999 0.0 0
M  V30 22 C 4.538 -2.9781 0.0 0
M  V30 23 C 6.0325 -3.9487 0.0 0
M  V30 24 C 3.4641 -1.5 0.0 0
M  V30 25 C 4.3301 0.0 0.0 0
M  V30 26 C 3.8689 -3.7212 0.0 0
M  V30 27 C 3.4641 -0.5 0.0 0
M  V30 28 C 2.598 0.0 0.0 0
M  V30 29 O 2.598 1.0 0.0 0
M  V30 30 N 1.732 -0.5 0.0 0
M  V30 31 C 0.866 0.0 0.0 0 CFG=2
M  V30 32 C 0.866 1.0 0.0 0
M  V30 33 C 0.0 -0.5 0.0 0
M  V30 34 C 1.732 1.5 0.0 0
M  V30 35 C 0.0 1.4999 0.0 0
M  V30 36 C 1.732 2.5 0.0 0
M  V30 37 C 0.0 2.4999 0.0 0
M  V30 38 C 0.866 3.0 0.0 0
M  V30 39 O 0.866 3.9999 0.0 0
M  V30 40 C 1.732 4.5 0.0 0
M  V30 41 C 1.732 5.5 0.0 0
M  V30 END ATOM
M  V30 BEGIN BOND
M  V30 1 2 1 2
M  V30 2 1 2 3
M  V30 3 1 2 4
M  V30 4 2 4 5
M  V30 5 1 4 6
M  V30 6 1 5 7
M  V30 7 1 5 8
M  V30 8 2 6 9
M  V30 9 2 7 10
M  V30 10 1 7 11
M  V30 11 2 8 12
M  V30 12 1 10 13
M  V30 13 2 11 14
M  V30 14 2 13 15
M  V30 15 1 15 16
M  V30 16 1 16 17
M  V30 17 1 17 18
M  V30 18 1 17 19
M  V30 19 2 18 20
M  V30 20 1 18 21
M  V30 21 2 19 22
M  V30 22 1 19 23
M  V30 23 1 20 24
M  V30 24 2 21 25
M  V30 25 1 22 26
M  V30 26 2 24 27
M  V30 27 1 27 28
M  V30 28 2 28 29
M  V30 29 1 28 30
M  V30 30 1 30 31
M  V30 31 1 31 32
M  V30 32 1 31 33 CFG=1
M  V30 33 2 32 34
M  V30 34 1 32 35
M  V30 35 1 34 36
M  V30 36 2 35 37
M  V30 37 2 36 38
M  V30 38 1 38 39
M  V30 39 1 39 40
M  V30 40 1 40 41
M  V30 41 1 9 12
M  V30 42 1 14 15
M  V30 43 1 20 22
M  V30 44 1 25 27
M  V30 45 1 37 38
M  V30 END BOND
M  V30 BEGIN COLLECTION
M  V30 MDLV30/STEABS ATOMS=(1 31)
M  V30 END COLLECTION
M  V30 END CTAB
M  END
>  <Molecule ChEMBL ID>
CHEMBL3699397

>  <Smiles>
CCOc1ccc([C@H](C)NC(=O)c2ccc3c(c2)c(C)c(C)n3Cc2ccc(-c3ccccc3C(=O)O)cc2)cc1

>  <IC50_nM>
5

>  <Assay Description>
Lanthascreen Competitive Binding Assay: The assay was performed according to manufacturer protocol. A mixture of nM GST-PPARG-LBD, 5 nM Tb-GST-antibody, 5 nM Fluormone Pan-PPAR Green, and serial dilutions of the experimental compound, beginning at 10 ׬M downwards, was added to wells of black 384-well low-volume plates (Greiner) to a total volume of 18 ׬L. All dilutions were made in TR-FRET assay buffer C. DMSO at 2% final concentration was used as a no-ligand control. Experiment was performed in triplicate, and incubated for 2 hours in the dark prior to assay read in Perkin Elmer ViewLux ultra HTS microplate reader. FRET signal was measured by excitation at 340 nm and emission at 520 nm for fluorescein and 490 nm for terbium. Fold change over DMSO was calculated using GraphPad Prism Software (La Jolla, Calif.) by calculating 520 nm/490 nm ratio. Graphs were plotted as fold change of FRET signal for compound treatment over DMSO-only control.

$$$$
CHEMBL3678136
Actelion Java MolfileCreator 2.0

  0  0  0  0  0  0              0 V3000
M  V30 BEGIN CTAB
M  V30 COUNTS 40 43 0 0 0
M  V30 BEGIN ATOM
M  V30 1 Cl 9.0932 -3.0 0.0 0
M  V30 2 C 7.7942 -2.2499 0.0 0
M  V30 3 C 7.7942 -0.75 0.0 0
M  V30 4 C 6.4951 -2.9999 0.0 0
M  V30 5 C 6.4951 0.0 0.0 0
M  V30 6 C 9.0932 0.0 0.0 0
M  V30 7 C 5.1961 -2.25 0.0 0
M  V30 8 C 5.1961 -0.75 0.0 0
M  V30 9 N 9.0932 1.5 0.0 0
M  V30 10 O 3.8971 0.0 0.0 0
M  V30 11 C 10.3067 2.3816 0.0 0
M  V30 12 C 7.8797 2.3816 0.0 0
M  V30 13 C 2.598 -0.75 0.0 0 CFG=2
M  V30 14 C 9.8432 3.8082 0.0 0
M  V30 15 C 11.774 2.0698 0.0 0
M  V30 16 C 8.3432 3.8082 0.0 0
M  V30 17 C 6.4531 1.9181 0.0 0
M  V30 18 C 1.299 0.0 0.0 0
M  V30 19 C 2.598 -2.25 0.0 0
M  V30 20 C 10.8469 4.9229 0.0 0
M  V30 21 C 12.7777 3.1845 0.0 0
M  V30 22 C 7.4615 5.0217 0.0 0
M  V30 23 O 1.299 1.5 0.0 0
M  V30 24 O 0.0 -0.75 0.0 0
M  V30 25 C 12.3141 4.6111 0.0 0
M  V30 26 C 13.3178 5.7258 0.0 0
M  V30 27 O 14.7851 5.4139 0.0 0
M  V30 28 N 12.8543 7.1524 0.0 0
M  V30 29 C 13.858 8.2671 0.0 0 CFG=2
M  V30 30 C 15.3252 7.9552 0.0 0
M  V30 31 C 13.3945 9.6937 0.0 0
M  V30 32 C 15.7887 6.5286 0.0 0
M  V30 33 C 16.3289 9.0699 0.0 0
M  V30 34 C 17.256 6.2168 0.0 0
M  V30 35 C 17.7961 8.7581 0.0 0
M  V30 36 O 17.7195 4.7902 0.0 0
M  V30 37 C 18.2597 7.3315 0.0 0
M  V30 38 C 16.7158 3.6755 0.0 0
M  V30 39 C 15.2486 3.9873 0.0 0
M  V30 40 C 17.1793 2.2489 0.0 0
M  V30 END ATOM
M  V30 BEGIN BOND
M  V30 1 1 1 2
M  V30 2 2 2 3
M  V30 3 1 2 4
M  V30 4 1 3 5
M  V30 5 1 3 6
M  V30 6 2 4 7
M  V30 7 2 5 8
M  V30 8 1 6 9
M  V30 9 1 8 10
M  V30 10 1 9 11
M  V30 11 1 9 12
M  V30 12 1 10 13
M  V30 13 2 11 14
M  V30 14 1 11 15
M  V30 15 2 12 16
M  V30 16 1 12 17
M  V30 17 1 13 18
M  V30 18 1 13 19 CFG=1
M  V30 19 1 14 20
M  V30 20 2 15 21
M  V30 21 1 16 22
M  V30 22 2 18 23
M  V30 23 1 18 24
M  V30 24 2 20 25
M  V30 25 1 25 26
M  V30 26 2 26 27
M  V30 27 1 26 28
M  V30 28 1 28 29
M  V30 29 1 29 30
M  V30 30 1 29 31 CFG=1
M  V30 31 2 30 32
M  V30 32 1 30 33
M  V30 33 1 32 34
M  V30 34 2 33 35
M  V30 35 1 34 36
M  V30 36 2 34 37
M  V30 37 1 36 38
M  V30 38 1 38 39
M  V30 39 1 38 40
M  V30 40 1 7 8
M  V30 41 1 14 16
M  V30 42 1 21 25
M  V30 43 1 35 37
M  V30 END BOND
M  V30 BEGIN COLLECTION
M  V30 MDLV30/STEABS ATOMS=(2 13 29)
M  V30 END COLLECTION
M  V30 END CTAB
M  END
>  <Molecule ChEMBL ID>
CHEMBL3678136

>  <Smiles>
Cc1c(C)n(Cc2cc(O[C@@H](C)C(=O)O)ccc2Cl)c2ccc(C(=O)N[C@@H](C)c3cccc(OC(C)C)c3)cc12

>  <IC50_nM>
5

>  <Assay Description>
Lanthascreen Competitive Binding Assay: The assay was performed according to manufacturer protocol. A mixture of 5 nM GST-PPARG-LBD, 5 nM Tb-GST-antibody, 5 nM Fluormone Pan- PPAR Green, and serial dilutions of the experimental compound, beginning at 10 ׬� downwards, was added to wells of black 384-well low- volume plates (Greiner) to a total volume of 18 xL. All dilutions were made in TR-FRET assay buffer C. DMSO at 2% final concentration was used as a no-ligand control. Experiment was performed in triplicate, and incubated for 2 hours in the dark prior to assay read in Perkin Elmer ViewLux ultra HTS microplate reader. FRET signal was measured by excitation at 340 nm and emission at 520 nm for fluorescein and 490 nm for terbium.

$$$$
CHEMBL370443
Actelion Java MolfileCreator 2.0

  0  0  0  0  0  0              0 V3000
M  V30 BEGIN CTAB
M  V30 COUNTS 43 47 0 0 0
M  V30 BEGIN ATOM
M  V30 1 F 1.598 -2.9999 0.0 0
M  V30 2 C 2.598 -2.9999 0.0 0
M  V30 3 F 2.598 -3.9999 0.0 0
M  V30 4 F 3.598 -2.9999 0.0 0
M  V30 5 C 2.598 -1.9999 0.0 0
M  V30 6 C 1.732 -1.4999 0.0 0
M  V30 7 C 3.4641 -1.4999 0.0 0
M  V30 8 C 1.732 -0.5 0.0 0
M  V30 9 C 3.4641 -0.4999 0.0 0
M  V30 10 O 0.866 0.0 0.0 0
M  V30 11 C 2.598 0.0 0.0 0
M  V30 12 C 0.0 -0.5 0.0 0
M  V30 13 C -0.9135 -0.0932 0.0 0
M  V30 14 C -0.1045 -1.4945 0.0 0
M  V30 15 N -1.5826 -0.8364 0.0 0
M  V30 16 C -1.1214 0.8848 0.0 0
M  V30 17 C -1.0826 -1.7024 0.0 0
M  V30 18 C 0.5646 -2.2376 0.0 0
M  V30 19 C -2.5771 -0.7318 0.0 0
M  V30 20 O -0.3783 1.554 0.0 0
M  V30 21 O -2.0725 1.1939 0.0 0
M  V30 22 C -1.3916 -2.6534 0.0 0
M  V30 23 C 0.2555 -3.1887 0.0 0
M  V30 24 C -2.9839 0.1816 0.0 0
M  V30 25 C -3.1649 -1.5408 0.0 0
M  V30 26 C -0.7225 -3.3966 0.0 0
M  V30 27 O 0.9247 -3.9318 0.0 0
M  V30 28 C -3.9784 0.2861 0.0 0
M  V30 29 C -4.1595 -1.4363 0.0 0
M  V30 30 C 0.6156 -4.8829 0.0 0
M  V30 31 C -4.5662 -0.5228 0.0 0
M  V30 32 N 1.2034 -5.6919 0.0 0
M  V30 33 C -0.3353 -5.1919 0.0 0
M  V30 34 C -5.5607 -0.4182 0.0 0
M  V30 35 C 0.6156 -6.5009 0.0 0
M  V30 36 C -0.3353 -6.1919 0.0 0
M  V30 37 C -5.6652 -1.4128 0.0 0
M  V30 38 C -6.5552 -0.3137 0.0 0
M  V30 39 C -5.4562 0.5762 0.0 0
M  V30 40 C -1.1443 -6.7797 0.0 0
M  V30 41 F -1.7321 -5.9707 0.0 0
M  V30 42 F -1.9533 -7.3675 0.0 0
M  V30 43 F -0.5565 -7.5887 0.0 0
M  V30 END ATOM
M  V30 BEGIN BOND
M  V30 1 1 1 2
M  V30 2 1 2 3
M  V30 3 1 2 4
M  V30 4 1 2 5
M  V30 5 2 5 6
M  V30 6 1 5 7
M  V30 7 1 6 8
M  V30 8 2 7 9
M  V30 9 1 8 10
M  V30 10 2 8 11
M  V30 11 1 10 12
M  V30 12 2 12 13
M  V30 13 1 12 14
M  V30 14 1 13 15
M  V30 15 1 13 16
M  V30 16 2 14 17
M  V30 17 1 14 18
M  V30 18 1 15 19
M  V30 19 2 16 20
M  V30 20 1 16 21
M  V30 21 1 17 22
M  V30 22 2 18 23
M  V30 23 2 19 24
M  V30 24 1 19 25
M  V30 25 2 22 26
M  V30 26 1 23 27
M  V30 27 1 24 28
M  V30 28 2 25 29
M  V30 29 1 27 30
M  V30 30 2 28 31
M  V30 31 1 30 32
M  V30 32 2 30 33
M  V30 33 1 31 34
M  V30 34 1 32 35
M  V30 35 1 33 36
M  V30 36 1 34 37
M  V30 37 1 34 38
M  V30 38 1 34 39
M  V30 39 1 36 40
M  V30 40 1 40 41
M  V30 41 1 40 42
M  V30 42 1 40 43
M  V30 43 1 9 11
M  V30 44 1 15 17
M  V30 45 1 23 26
M  V30 46 1 29 31
M  V30 47 2 35 36
M  V30 END BOND
M  V30 END CTAB
M  END
>  <Molecule ChEMBL ID>
CHEMBL370443

>  <Smiles>
CC(C)(C)c1ccc(-n2c(C(=O)O)c(Oc3cccc(C(F)(F)F)c3)c3cc(Oc4cc(C(F)(F)F)c[nH]4)ccc32)cc1

>  <IC50_nM>
5

>  <Assay Description>
Inhibitory concentration against human peroxisome proliferator activated receptor gamma in SPA assay

$$$$
CHEMBL363805
Actelion Java MolfileCreator 2.0

  0  0  0  0  0  0              0 V3000
M  V30 BEGIN CTAB
M  V30 COUNTS 39 43 0 0 0
M  V30 BEGIN ATOM
M  V30 1 Cl 9.0932 -3.0 0.0 0
M  V30 2 C 7.7942 -2.2499 0.0 0
M  V30 3 C 7.7942 -0.75 0.0 0
M  V30 4 C 6.4951 -2.9999 0.0 0
M  V30 5 O 9.0932 0.0 0.0 0
M  V30 6 C 6.4951 0.0 0.0 0
M  V30 7 C 5.1961 -2.25 0.0 0
M  V30 8 C 9.0932 1.5 0.0 0
M  V30 9 C 5.1961 -0.75 0.0 0
M  V30 10 C 10.3067 2.3816 0.0 0
M  V30 11 C 7.8797 2.3816 0.0 0
M  V30 12 O 3.8971 0.0 0.0 0
M  V30 13 C 9.8432 3.8082 0.0 0
M  V30 14 C 11.774 2.0698 0.0 0
M  V30 15 N 8.3432 3.8082 0.0 0
M  V30 16 C 6.4531 1.9181 0.0 0
M  V30 17 C 2.598 -0.75 0.0 0 CFG=2
M  V30 18 C 10.8469 4.9229 0.0 0
M  V30 19 C 12.7777 3.1845 0.0 0
M  V30 20 C 7.4615 5.0217 0.0 0
M  V30 21 C 1.299 0.0 0.0 0
M  V30 22 C 2.598 -2.25 0.0 0
M  V30 23 C 12.3141 4.6111 0.0 0
M  V30 24 O 14.2449 2.8726 0.0 0
M  V30 25 N 7.9251 6.4483 0.0 0
M  V30 26 C 5.9615 5.0217 0.0 0
M  V30 27 O 1.299 1.5 0.0 0
M  V30 28 O 0.0 -0.75 0.0 0
M  V30 29 C 15.2486 3.9873 0.0 0
M  V30 30 O 6.7115 7.33 0.0 0
M  V30 31 C 5.498 6.4483 0.0 0
M  V30 32 C 4.9578 3.907 0.0 0
M  V30 33 F 14.1339 4.991 0.0 0
M  V30 34 F 16.2523 5.102 0.0 0
M  V30 35 F 16.3633 2.9836 0.0 0
M  V30 36 C 4.0308 6.7602 0.0 0
M  V30 37 C 3.4906 4.2189 0.0 0
M  V30 38 C 3.0271 5.6455 0.0 0
M  V30 39 Cl 1.5599 5.9573 0.0 0
M  V30 END ATOM
M  V30 BEGIN BOND
M  V30 1 1 1 2
M  V30 2 2 2 3
M  V30 3 1 2 4
M  V30 4 1 3 5
M  V30 5 1 3 6
M  V30 6 2 4 7
M  V30 7 1 5 8
M  V30 8 2 6 9
M  V30 9 1 8 10
M  V30 10 2 8 11
M  V30 11 1 9 12
M  V30 12 2 10 13
M  V30 13 1 10 14
M  V30 14 1 11 15
M  V30 15 1 11 16
M  V30 16 1 12 17
M  V30 17 1 13 18
M  V30 18 2 14 19
M  V30 19 1 15 20
M  V30 20 1 17 21
M  V30 21 1 17 22 CFG=1
M  V30 22 2 18 23
M  V30 23 1 19 24
M  V30 24 2 20 25
M  V30 25 1 20 26
M  V30 26 2 21 27
M  V30 27 1 21 28
M  V30 28 1 24 29
M  V30 29 1 25 30
M  V30 30 2 26 31
M  V30 31 1 26 32
M  V30 32 1 29 33
M  V30 33 1 29 34
M  V30 34 1 29 35
M  V30 35 1 31 36
M  V30 36 2 32 37
M  V30 37 2 36 38
M  V30 38 1 38 39
M  V30 39 1 7 9
M  V30 40 1 13 15
M  V30 41 1 19 23
M  V30 42 1 30 31
M  V30 43 1 37 38
M  V30 END BOND
M  V30 BEGIN COLLECTION
M  V30 MDLV30/STEABS ATOMS=(1 17)
M  V30 END COLLECTION
M  V30 END CTAB
M  END
>  <Molecule ChEMBL ID>
CHEMBL363805

>  <Smiles>
Cc1c(Oc2cc(O[C@@H](C)C(=O)O)ccc2Cl)c2cc(OC(F)(F)F)ccc2n1-c1noc2cc(Cl)ccc12

>  <IC50_nM>
5

>  <Assay Description>
Inhibition of human peroxisome proliferator activated receptor gamma binding

$$$$
CHEMBL363532
Actelion Java MolfileCreator 2.0

  0  0  0  0  0  0              0 V3000
M  V30 BEGIN CTAB
M  V30 COUNTS 32 34 0 0 0
M  V30 BEGIN ATOM
M  V30 1 O 8.6602 -1.5 0.0 0
M  V30 2 C 7.7942 -2.0 0.0 0
M  V30 3 C 6.9282 -1.5 0.0 0
M  V30 4 C 7.7942 -3.0 0.0 0
M  V30 5 C 6.9282 -0.5 0.0 0
M  V30 6 C 6.0621 -2.0 0.0 0
M  V30 7 C 6.9282 -3.4999 0.0 0
M  V30 8 C 8.6602 -3.5 0.0 0
M  V30 9 C 6.0621 0.0 0.0 0
M  V30 10 C 5.1961 -1.5 0.0 0
M  V30 11 C 6.9282 -4.5 0.0 0
M  V30 12 C 8.6602 -4.5 0.0 0
M  V30 13 C 5.1961 -0.5 0.0 0
M  V30 14 C 7.7942 -5.0 0.0 0
M  V30 15 O 4.3301 0.0 0.0 0
M  V30 16 C 3.4641 -0.5 0.0 0
M  V30 17 C 2.598 0.0 0.0 0
M  V30 18 C 1.732 -0.5 0.0 0
M  V30 19 O 0.866 0.0 0.0 0
M  V30 20 C 0.0 -0.5 0.0 0
M  V30 21 C -0.866 0.0 0.0 0
M  V30 22 C 0.0 -1.4999 0.0 0
M  V30 23 C -1.732 -0.4999 0.0 0
M  V30 24 C -0.866 -1.9999 0.0 0
M  V30 25 C -1.732 -1.4999 0.0 0
M  V30 26 C -2.598 -1.9999 0.0 0
M  V30 27 C -2.598 -2.9999 0.0 0 CFG=2
M  V30 28 O -1.732 -3.4999 0.0 0
M  V30 29 C -3.4641 -3.4999 0.0 0
M  V30 30 C -0.866 -2.9999 0.0 0
M  V30 31 O -4.3301 -2.9999 0.0 0
M  V30 32 O -3.4641 -4.4999 0.0 0
M  V30 END ATOM
M  V30 BEGIN BOND
M  V30 1 2 1 2
M  V30 2 1 2 3
M  V30 3 1 2 4
M  V30 4 2 3 5
M  V30 5 1 3 6
M  V30 6 2 4 7
M  V30 7 1 4 8
M  V30 8 1 5 9
M  V30 9 2 6 10
M  V30 10 1 7 11
M  V30 11 2 8 12
M  V30 12 2 9 13
M  V30 13 2 11 14
M  V30 14 1 13 15
M  V30 15 1 15 16
M  V30 16 1 16 17
M  V30 17 1 17 18
M  V30 18 1 18 19
M  V30 19 1 19 20
M  V30 20 2 20 21
M  V30 21 1 20 22
M  V30 22 1 21 23
M  V30 23 2 22 24
M  V30 24 2 23 25
M  V30 25 1 25 26
M  V30 26 1 26 27
M  V30 27 1 27 28 CFG=3
M  V30 28 1 27 29
M  V30 29 1 28 30
M  V30 30 2 29 31
M  V30 31 1 29 32
M  V30 32 1 10 13
M  V30 33 1 12 14
M  V30 34 1 24 25
M  V30 END BOND
M  V30 BEGIN COLLECTION
M  V30 MDLV30/STEABS ATOMS=(1 27)
M  V30 END COLLECTION
M  V30 END CTAB
M  END
>  <Molecule ChEMBL ID>
CHEMBL363532

>  <Smiles>
CO[C@@H](Cc1ccc(OCCCOc2ccc(C(=O)c3ccccc3)cc2)cc1)C(=O)O

>  <IC50_nM>
5

>  <Assay Description>
Mean inhibitory concentration against human peroxisome proliferator-activated receptor gamma

$$$$
CHEMBL237307
Actelion Java MolfileCreator 2.0

  0  0  0  0  0  0              0 V3000
M  V30 BEGIN CTAB
M  V30 COUNTS 37 39 0 0 0
M  V30 BEGIN ATOM
M  V30 1 F 6.4951 1.5 0.0 0
M  V30 2 C 6.4951 0.0 0.0 0
M  V30 3 C 5.1961 -0.75 0.0 0
M  V30 4 C 7.7942 -0.75 0.0 0
M  V30 5 C 3.8971 0.0 0.0 0
M  V30 6 C 5.1961 -2.25 0.0 0
M  V30 7 C 7.7942 -2.25 0.0 0
M  V30 8 O 3.8971 1.5 0.0 0
M  V30 9 N 2.598 -0.75 0.0 0
M  V30 10 C 6.4951 -3.0 0.0 0
M  V30 11 C 9.0932 -3.0 0.0 0
M  V30 12 C 1.299 0.0 0.0 0
M  V30 13 F 9.8432 -1.7009 0.0 0
M  V30 14 F 10.3923 -3.75 0.0 0
M  V30 15 F 8.3432 -4.299 0.0 0
M  V30 16 C 0.0 -0.75 0.0 0
M  V30 17 C -1.299 0.0 0.0 0
M  V30 18 C 0.0 -2.25 0.0 0
M  V30 19 C -2.598 -0.75 0.0 0
M  V30 20 C -1.299 -3.0 0.0 0
M  V30 21 O -3.8971 0.0 0.0 0
M  V30 22 C -2.598 -2.25 0.0 0
M  V30 23 C -5.1961 -0.75 0.0 0
M  V30 24 C -3.8971 -3.0 0.0 0
M  V30 25 C -6.4951 0.0 0.0 0
M  V30 26 C -5.1961 -2.25 0.0 0
M  V30 27 C -7.7942 -0.75 0.0 0
M  V30 28 C -6.4951 -3.0 0.0 0
M  V30 29 C -7.7942 -2.25 0.0 0
M  V30 30 C -9.0932 0.0 0.0 0
M  V30 31 O -9.0932 -3.0 0.0 0
M  V30 32 C -9.0932 -4.5 0.0 0
M  V30 33 C -10.3923 -5.25 0.0 0
M  V30 34 C -8.3433 -5.799 0.0 0
M  V30 35 C -7.5933 -4.4999 0.0 0
M  V30 36 O -11.6913 -4.5 0.0 0
M  V30 37 O -10.3923 -6.75 0.0 0
M  V30 END ATOM
M  V30 BEGIN BOND
M  V30 1 1 1 2
M  V30 2 2 2 3
M  V30 3 1 2 4
M  V30 4 1 3 5
M  V30 5 1 3 6
M  V30 6 2 4 7
M  V30 7 2 5 8
M  V30 8 1 5 9
M  V30 9 2 6 10
M  V30 10 1 7 11
M  V30 11 1 9 12
M  V30 12 1 11 13
M  V30 13 1 11 14
M  V30 14 1 11 15
M  V30 15 1 12 16
M  V30 16 2 16 17
M  V30 17 1 16 18
M  V30 18 1 17 19
M  V30 19 2 18 20
M  V30 20 1 19 21
M  V30 21 2 19 22
M  V30 22 1 21 23
M  V30 23 1 22 24
M  V30 24 2 23 25
M  V30 25 1 23 26
M  V30 26 1 25 27
M  V30 27 2 26 28
M  V30 28 2 27 29
M  V30 29 1 27 30
M  V30 30 1 29 31
M  V30 31 1 31 32
M  V30 32 1 32 33
M  V30 33 1 32 34
M  V30 34 1 32 35
M  V30 35 2 33 36
M  V30 36 1 33 37
M  V30 37 1 7 10
M  V30 38 1 20 22
M  V30 39 1 28 29
M  V30 END BOND
M  V30 END CTAB
M  END
>  <Molecule ChEMBL ID>
CHEMBL237307

>  <Smiles>
Cc1ccc(CNC(=O)c2ccc(C(F)(F)F)cc2F)cc1Oc1ccc(OC(C)(C)C(=O)O)c(C)c1

>  <IC50_nM>
5

>  <Assay Description>
Displacement of [3H]2-methyl-2-(4-{3-{propyl-(5-pyridin-2-yl-thiophene-2-sulfonyl)-amino}-propyl}-phenoxy)-propionic acid from human PPARgamma

$$$$
CHEMBL237307
Actelion Java MolfileCreator 2.0

  0  0  0  0  0  0              0 V3000
M  V30 BEGIN CTAB
M  V30 COUNTS 37 39 0 0 0
M  V30 BEGIN ATOM
M  V30 1 F 6.4951 1.5 0.0 0
M  V30 2 C 6.4951 0.0 0.0 0
M  V30 3 C 5.1961 -0.75 0.0 0
M  V30 4 C 7.7942 -0.75 0.0 0
M  V30 5 C 3.8971 0.0 0.0 0
M  V30 6 C 5.1961 -2.25 0.0 0
M  V30 7 C 7.7942 -2.25 0.0 0
M  V30 8 O 3.8971 1.5 0.0 0
M  V30 9 N 2.598 -0.75 0.0 0
M  V30 10 C 6.4951 -3.0 0.0 0
M  V30 11 C 9.0932 -3.0 0.0 0
M  V30 12 C 1.299 0.0 0.0 0
M  V30 13 F 9.8432 -1.7009 0.0 0
M  V30 14 F 10.3923 -3.75 0.0 0
M  V30 15 F 8.3432 -4.299 0.0 0
M  V30 16 C 0.0 -0.75 0.0 0
M  V30 17 C -1.299 0.0 0.0 0
M  V30 18 C 0.0 -2.25 0.0 0
M  V30 19 C -2.598 -0.75 0.0 0
M  V30 20 C -1.299 -3.0 0.0 0
M  V30 21 O -3.8971 0.0 0.0 0
M  V30 22 C -2.598 -2.25 0.0 0
M  V30 23 C -5.1961 -0.75 0.0 0
M  V30 24 C -3.8971 -3.0 0.0 0
M  V30 25 C -6.4951 0.0 0.0 0
M  V30 26 C -5.1961 -2.25 0.0 0
M  V30 27 C -7.7942 -0.75 0.0 0
M  V30 28 C -6.4951 -3.0 0.0 0
M  V30 29 C -7.7942 -2.25 0.0 0
M  V30 30 C -9.0932 0.0 0.0 0
M  V30 31 O -9.0932 -3.0 0.0 0
M  V30 32 C -9.0932 -4.5 0.0 0
M  V30 33 C -10.3923 -5.25 0.0 0
M  V30 34 C -8.3433 -5.799 0.0 0
M  V30 35 C -7.5933 -4.4999 0.0 0
M  V30 36 O -11.6913 -4.5 0.0 0
M  V30 37 O -10.3923 -6.75 0.0 0
M  V30 END ATOM
M  V30 BEGIN BOND
M  V30 1 1 1 2
M  V30 2 2 2 3
M  V30 3 1 2 4
M  V30 4 1 3 5
M  V30 5 1 3 6
M  V30 6 2 4 7
M  V30 7 2 5 8
M  V30 8 1 5 9
M  V30 9 2 6 10
M  V30 10 1 7 11
M  V30 11 1 9 12
M  V30 12 1 11 13
M  V30 13 1 11 14
M  V30 14 1 11 15
M  V30 15 1 12 16
M  V30 16 2 16 17
M  V30 17 1 16 18
M  V30 18 1 17 19
M  V30 19 2 18 20
M  V30 20 1 19 21
M  V30 21 2 19 22
M  V30 22 1 21 23
M  V30 23 1 22 24
M  V30 24 2 23 25
M  V30 25 1 23 26
M  V30 26 1 25 27
M  V30 27 2 26 28
M  V30 28 2 27 29
M  V30 29 1 27 30
M  V30 30 1 29 31
M  V30 31 1 31 32
M  V30 32 1 32 33
M  V30 33 1 32 34
M  V30 34 1 32 35
M  V30 35 2 33 36
M  V30 36 1 33 37
M  V30 37 1 7 10
M  V30 38 1 20 22
M  V30 39 1 28 29
M  V30 END BOND
M  V30 END CTAB
M  END
>  <Molecule ChEMBL ID>
CHEMBL237307

>  <Smiles>
Cc1ccc(CNC(=O)c2ccc(C(F)(F)F)cc2F)cc1Oc1ccc(OC(C)(C)C(=O)O)c(C)c1

>  <IC50_nM>
5

>  <Assay Description>
Agonist activity at PPARgamma

$$$$
CHEMBL212911
Actelion Java MolfileCreator 2.0

  0  0  0  0  0  0              0 V3000
M  V30 BEGIN CTAB
M  V30 COUNTS 34 36 0 0 0
M  V30 BEGIN ATOM
M  V30 1 O 5.1961 1.5 0.0 0
M  V30 2 C 6.0621 1.0 0.0 0
M  V30 3 C 6.0621 0.0 0.0 0
M  V30 4 C 6.9282 1.5 0.0 0
M  V30 5 C 5.1961 -0.5 0.0 0
M  V30 6 C 6.9282 -0.4999 0.0 0
M  V30 7 C 7.7942 0.9999 0.0 0
M  V30 8 C 6.9282 2.4999 0.0 0
M  V30 9 O 4.3301 0.0 0.0 0
M  V30 10 C 5.1961 -1.4999 0.0 0
M  V30 11 C 6.9282 -1.4999 0.0 0
M  V30 12 C 8.6602 1.4999 0.0 0
M  V30 13 C 7.7942 2.9999 0.0 0
M  V30 14 C 3.4641 -0.5 0.0 0 CFG=1
M  V30 15 C 6.0621 -1.9999 0.0 0
M  V30 16 C 7.7942 -1.9999 0.0 0
M  V30 17 C 8.6602 2.4999 0.0 0
M  V30 18 C 2.598 0.0 0.0 0
M  V30 19 C 3.4641 -1.5 0.0 0
M  V30 20 C 8.6602 -1.4999 0.0 0
M  V30 21 C 1.732 -0.5 0.0 0
M  V30 22 O 0.866 0.0 0.0 0
M  V30 23 C 0.0 -0.5 0.0 0
M  V30 24 C -0.866 0.0 0.0 0
M  V30 25 C 0.0 -1.4999 0.0 0
M  V30 26 C -1.732 -0.4999 0.0 0
M  V30 27 C -0.866 -1.9999 0.0 0
M  V30 28 C -1.732 -1.4999 0.0 0
M  V30 29 C -2.598 0.0 0.0 0
M  V30 30 C -2.598 -1.9999 0.0 0
M  V30 31 C -2.598 -2.9999 0.0 0
M  V30 32 C -3.4641 -3.4999 0.0 0
M  V30 33 O -4.3301 -2.9999 0.0 0
M  V30 34 O -3.4641 -4.4999 0.0 0
M  V30 END ATOM
M  V30 BEGIN BOND
M  V30 1 2 1 2
M  V30 2 1 2 3
M  V30 3 1 2 4
M  V30 4 2 3 5
M  V30 5 1 3 6
M  V30 6 2 4 7
M  V30 7 1 4 8
M  V30 8 1 5 9
M  V30 9 1 5 10
M  V30 10 2 6 11
M  V30 11 1 7 12
M  V30 12 2 8 13
M  V30 13 1 9 14
M  V30 14 2 10 15
M  V30 15 1 11 16
M  V30 16 2 12 17
M  V30 17 1 14 18
M  V30 18 1 14 19 CFG=3
M  V30 19 1 16 20
M  V30 20 1 18 21
M  V30 21 1 21 22
M  V30 22 1 22 23
M  V30 23 2 23 24
M  V30 24 1 23 25
M  V30 25 1 24 26
M  V30 26 2 25 27
M  V30 27 2 26 28
M  V30 28 1 26 29
M  V30 29 1 28 30
M  V30 30 1 30 31
M  V30 31 1 31 32
M  V30 32 2 32 33
M  V30 33 1 32 34
M  V30 34 1 11 15
M  V30 35 1 13 17
M  V30 36 1 27 28
M  V30 END BOND
M  V30 BEGIN COLLECTION
M  V30 MDLV30/STEABS ATOMS=(1 14)
M  V30 END COLLECTION
M  V30 END CTAB
M  END
>  <Molecule ChEMBL ID>
CHEMBL212911

>  <Smiles>
CCc1ccc(O[C@H](C)CCOc2ccc(CCC(=O)O)c(C)c2)c(C(=O)c2ccccc2)c1

>  <IC50_nM>
5

>  <Assay Description>
Agonist activity at PPARgamma

$$$$
CHEMBL3735503
Actelion Java MolfileCreator 2.0

  0  0  0  0  0  0              0 V3000
M  V30 BEGIN CTAB
M  V30 COUNTS 40 44 0 0 0
M  V30 BEGIN ATOM
M  V30 1 O 11.8592 -3.5669 0.0 0
M  V30 2 C 10.8811 -3.7748 0.0 0
M  V30 3 O 10.212 -3.0316 0.0 0
M  V30 4 C 10.5721 -4.7258 0.0 0
M  V30 5 C 9.5939 -4.9337 0.0 0
M  V30 6 C 11.2412 -5.469 0.0 0
M  V30 7 C 8.9248 -4.1906 0.0 0
M  V30 8 C 9.2849 -5.8848 0.0 0
M  V30 9 C 10.9322 -6.42 0.0 0
M  V30 10 C 9.2338 -3.2395 0.0 0
M  V30 11 C 7.9466 -4.3985 0.0 0
M  V30 12 C 9.954 -6.6279 0.0 0
M  V30 13 C 8.5647 -2.4964 0.0 0
M  V30 14 C 7.2775 -3.6554 0.0 0
M  V30 15 C 7.5865 -2.7043 0.0 0
M  V30 16 C 6.9174 -1.9612 0.0 0
M  V30 17 N 5.9392 -2.1691 0.0 0
M  V30 18 C 5.1961 -1.4999 0.0 0
M  V30 19 C 5.5325 -3.0826 0.0 0
M  V30 20 C 4.3301 -1.9999 0.0 0
M  V30 21 C 5.1961 -0.4999 0.0 0
M  V30 22 C 4.538 -2.9781 0.0 0
M  V30 23 C 6.0325 -3.9487 0.0 0
M  V30 24 C 3.4641 -1.5 0.0 0
M  V30 25 C 4.3301 0.0 0.0 0
M  V30 26 C 3.8689 -3.7212 0.0 0
M  V30 27 C 3.4641 -0.5 0.0 0
M  V30 28 C 2.598 0.0 0.0 0
M  V30 29 O 2.598 1.0 0.0 0
M  V30 30 N 1.732 -0.5 0.0 0
M  V30 31 C 0.866 0.0 0.0 0
M  V30 32 C 0.0 -0.5 0.0 0
M  V30 33 C -0.866 0.0 0.0 0
M  V30 34 C 0.0 -1.4999 0.0 0
M  V30 35 C -1.732 -0.4999 0.0 0
M  V30 36 C -0.866 -1.9999 0.0 0
M  V30 37 C -1.732 -1.4999 0.0 0
M  V30 38 C -2.598 0.0 0.0 0
M  V30 39 C -2.598 1.0 0.0 0
M  V30 40 C -3.4641 -0.4999 0.0 0
M  V30 END ATOM
M  V30 BEGIN BOND
M  V30 1 2 1 2
M  V30 2 1 2 3
M  V30 3 1 2 4
M  V30 4 2 4 5
M  V30 5 1 4 6
M  V30 6 1 5 7
M  V30 7 1 5 8
M  V30 8 2 6 9
M  V30 9 2 7 10
M  V30 10 1 7 11
M  V30 11 2 8 12
M  V30 12 1 10 13
M  V30 13 2 11 14
M  V30 14 2 13 15
M  V30 15 1 15 16
M  V30 16 1 16 17
M  V30 17 1 17 18
M  V30 18 1 17 19
M  V30 19 2 18 20
M  V30 20 1 18 21
M  V30 21 2 19 22
M  V30 22 1 19 23
M  V30 23 1 20 24
M  V30 24 2 21 25
M  V30 25 1 22 26
M  V30 26 2 24 27
M  V30 27 1 27 28
M  V30 28 2 28 29
M  V30 29 1 28 30
M  V30 30 1 30 31
M  V30 31 1 31 32
M  V30 32 2 32 33
M  V30 33 1 32 34
M  V30 34 1 33 35
M  V30 35 2 34 36
M  V30 36 2 35 37
M  V30 37 1 35 38
M  V30 38 1 38 39
M  V30 39 1 38 40
M  V30 40 1 9 12
M  V30 41 1 14 15
M  V30 42 1 20 22
M  V30 43 1 25 27
M  V30 44 1 36 37
M  V30 END BOND
M  V30 END CTAB
M  END
>  <Molecule ChEMBL ID>
CHEMBL3735503

>  <Smiles>
Cc1c(C)n(Cc2ccc(-c3ccccc3C(=O)O)cc2)c2ccc(C(=O)NCc3cccc(C(C)C)c3)cc12

>  <IC50_nM>
5

>  <Assay Description>
Binding affinity to GST-tagged PPAR-gamma-LBD (unknown origin) after 2 hrs by Lantha screen assay using fluormone Pan-PPAR green probe

$$$$
CHEMBL181644
Actelion Java MolfileCreator 2.0

  0  0  0  0  0  0              0 V3000
M  V30 BEGIN CTAB
M  V30 COUNTS 33 35 0 0 0
M  V30 BEGIN ATOM
M  V30 1 Cl 6.0621 1.0 0.0 0
M  V30 2 C 6.0621 0.0 0.0 0
M  V30 3 C 5.1961 -0.5 0.0 0
M  V30 4 C 6.9282 -0.4999 0.0 0
M  V30 5 O 4.3301 0.0 0.0 0
M  V30 6 C 5.1961 -1.4999 0.0 0
M  V30 7 C 6.9282 -1.4999 0.0 0
M  V30 8 C 3.4641 -0.5 0.0 0
M  V30 9 C 6.0621 -1.9999 0.0 0
M  V30 10 C 7.7942 -1.9999 0.0 0
M  V30 11 C 2.598 0.0 0.0 0
M  V30 12 C 8.6602 -1.4999 0.0 0 CFG=2
M  V30 13 C 1.732 -0.5 0.0 0
M  V30 14 O 8.6602 -0.4999 0.0 0
M  V30 15 C 9.5262 -1.9999 0.0 0
M  V30 16 O 0.866 0.0 0.0 0
M  V30 17 C 7.7942 0.0 0.0 0
M  V30 18 O 9.5262 -2.9999 0.0 0
M  V30 19 O 10.3923 -1.4999 0.0 0
M  V30 20 C 0.0 -0.5 0.0 0
M  V30 21 C -0.866 0.0 0.0 0
M  V30 22 C 0.0 -1.4999 0.0 0
M  V30 23 C -1.732 -0.4999 0.0 0
M  V30 24 C -0.866 -1.9999 0.0 0
M  V30 25 C -1.732 -1.4999 0.0 0
M  V30 26 C -2.598 -1.9999 0.0 0
M  V30 27 O -3.4641 -1.4999 0.0 0
M  V30 28 C -2.598 -2.9999 0.0 0
M  V30 29 C -3.4641 -3.4999 0.0 0
M  V30 30 C -1.732 -3.4999 0.0 0
M  V30 31 C -3.4641 -4.4999 0.0 0
M  V30 32 C -1.732 -4.4999 0.0 0
M  V30 33 C -2.598 -4.9999 0.0 0
M  V30 END ATOM
M  V30 BEGIN BOND
M  V30 1 1 1 2
M  V30 2 2 2 3
M  V30 3 1 2 4
M  V30 4 1 3 5
M  V30 5 1 3 6
M  V30 6 2 4 7
M  V30 7 1 5 8
M  V30 8 2 6 9
M  V30 9 1 7 10
M  V30 10 1 8 11
M  V30 11 1 10 12
M  V30 12 1 11 13
M  V30 13 1 12 14 CFG=3
M  V30 14 1 12 15
M  V30 15 1 13 16
M  V30 16 1 14 17
M  V30 17 2 15 18
M  V30 18 1 15 19
M  V30 19 1 16 20
M  V30 20 2 20 21
M  V30 21 1 20 22
M  V30 22 1 21 23
M  V30 23 2 22 24
M  V30 24 2 23 25
M  V30 25 1 25 26
M  V30 26 2 26 27
M  V30 27 1 26 28
M  V30 28 2 28 29
M  V30 29 1 28 30
M  V30 30 1 29 31
M  V30 31 2 30 32
M  V30 32 2 31 33
M  V30 33 1 7 9
M  V30 34 1 24 25
M  V30 35 1 32 33
M  V30 END BOND
M  V30 BEGIN COLLECTION
M  V30 MDLV30/STEABS ATOMS=(1 12)
M  V30 END COLLECTION
M  V30 END CTAB
M  END
>  <Molecule ChEMBL ID>
CHEMBL181644

>  <Smiles>
CO[C@@H](Cc1ccc(OCCCOc2ccc(C(=O)c3ccccc3)cc2)c(Cl)c1)C(=O)O

>  <IC50_nM>
5

>  <Assay Description>
Agonist activity at PPARgamma

$$$$
CHEMBL3699351
Actelion Java MolfileCreator 2.0

  0  0  0  0  0  0              0 V3000
M  V30 BEGIN CTAB
M  V30 COUNTS 41 45 0 0 0
M  V30 BEGIN ATOM
M  V30 1 F 6.0621 0.0 0.0 0
M  V30 2 C 5.1961 -0.5 0.0 0
M  V30 3 C 4.3301 0.0 0.0 0
M  V30 4 C 5.1961 -1.4999 0.0 0
M  V30 5 C 3.4641 -0.5 0.0 0
M  V30 6 C 4.3301 -1.9999 0.0 0
M  V30 7 C 3.4641 -1.4999 0.0 0
M  V30 8 C 2.598 0.0 0.0 0 CFG=2
M  V30 9 O 2.598 -2.0 0.0 0
M  V30 10 N 1.732 -0.5 0.0 0
M  V30 11 C 2.598 1.0 0.0 0
M  V30 12 C 2.598 -3.0 0.0 0
M  V30 13 C 0.866 0.0 0.0 0
M  V30 14 O 0.866 1.0 0.0 0
M  V30 15 C 0.0 -0.5 0.0 0
M  V30 16 C 0.0 -1.4999 0.0 0
M  V30 17 C -0.866 0.0 0.0 0
M  V30 18 C -0.866 -1.9999 0.0 0
M  V30 19 C -1.732 -0.4999 0.0 0
M  V30 20 C -1.732 -1.4999 0.0 0
M  V30 21 C -1.0739 -2.9781 0.0 0
M  V30 22 N -2.4751 -2.1691 0.0 0
M  V30 23 C -2.0684 -3.0826 0.0 0
M  V30 24 C -0.4048 -3.7212 0.0 0
M  V30 25 C -3.4533 -1.9612 0.0 0
M  V30 26 C -2.5684 -3.9487 0.0 0
M  V30 27 C -4.1224 -2.7043 0.0 0
M  V30 28 C -5.1006 -2.4964 0.0 0
M  V30 29 C -3.8134 -3.6554 0.0 0
M  V30 30 C -5.7697 -3.2395 0.0 0
M  V30 31 C -4.4825 -4.3985 0.0 0
M  V30 32 C -5.4607 -4.1906 0.0 0
M  V30 33 C -6.1298 -4.9337 0.0 0
M  V30 34 C -7.108 -4.7258 0.0 0
M  V30 35 C -5.8208 -5.8848 0.0 0
M  V30 36 C -7.417 -3.7748 0.0 0
M  V30 37 C -7.7771 -5.469 0.0 0
M  V30 38 C -6.4899 -6.6279 0.0 0
M  V30 39 O -6.7478 -3.0316 0.0 0
M  V30 40 O -8.3951 -3.5669 0.0 0
M  V30 41 C -7.4681 -6.42 0.0 0
M  V30 END ATOM
M  V30 BEGIN BOND
M  V30 1 1 1 2
M  V30 2 2 2 3
M  V30 3 1 2 4
M  V30 4 1 3 5
M  V30 5 2 4 6
M  V30 6 2 5 7
M  V30 7 1 5 8
M  V30 8 1 7 9
M  V30 9 1 8 10
M  V30 10 1 8 11 CFG=3
M  V30 11 1 9 12
M  V30 12 1 10 13
M  V30 13 2 13 14
M  V30 14 1 13 15
M  V30 15 2 15 16
M  V30 16 1 15 17
M  V30 17 1 16 18
M  V30 18 2 17 19
M  V30 19 2 18 20
M  V30 20 1 18 21
M  V30 21 1 20 22
M  V30 22 2 21 23
M  V30 23 1 21 24
M  V30 24 1 22 25
M  V30 25 1 23 26
M  V30 26 1 25 27
M  V30 27 2 27 28
M  V30 28 1 27 29
M  V30 29 1 28 30
M  V30 30 2 29 31
M  V30 31 2 30 32
M  V30 32 1 32 33
M  V30 33 2 33 34
M  V30 34 1 33 35
M  V30 35 1 34 36
M  V30 36 1 34 37
M  V30 37 2 35 38
M  V30 38 2 36 39
M  V30 39 1 36 40
M  V30 40 2 37 41
M  V30 41 1 6 7
M  V30 42 1 19 20
M  V30 43 1 22 23
M  V30 44 1 31 32
M  V30 45 1 38 41
M  V30 END BOND
M  V30 BEGIN COLLECTION
M  V30 MDLV30/STEABS ATOMS=(1 8)
M  V30 END COLLECTION
M  V30 END CTAB
M  END
>  <Molecule ChEMBL ID>
CHEMBL3699351

>  <Smiles>
COc1ccc(F)cc1[C@@H](C)NC(=O)c1ccc2c(c1)c(C)c(C)n2Cc1ccc(-c2ccccc2C(=O)O)cc1

>  <IC50_nM>
5

>  <Assay Description>
Lanthascreen Competitive Binding Assay: The assay was performed according to manufacturer protocol. A mixture of nM GST-PPARG-LBD, 5 nM Tb-GST-antibody, 5 nM Fluormone Pan-PPAR Green, and serial dilutions of the experimental compound, beginning at 10 ׬M downwards, was added to wells of black 384-well low-volume plates (Greiner) to a total volume of 18 ׬L. All dilutions were made in TR-FRET assay buffer C. DMSO at 2% final concentration was used as a no-ligand control. Experiment was performed in triplicate, and incubated for 2 hours in the dark prior to assay read in Perkin Elmer ViewLux ultra HTS microplate reader. FRET signal was measured by excitation at 340 nm and emission at 520 nm for fluorescein and 490 nm for terbium. Fold change over DMSO was calculated using GraphPad Prism Software (La Jolla, Calif.) by calculating 520 nm/490 nm ratio. Graphs were plotted as fold change of FRET signal for compound treatment over DMSO-only control.

$$$$
CHEMBL3678087
Actelion Java MolfileCreator 2.0

  0  0  0  0  0  0              0 V3000
M  V30 BEGIN CTAB
M  V30 COUNTS 28 31 0 0 0
M  V30 BEGIN ATOM
M  V30 1 F 8.8737 -1.5453 0.0 0
M  V30 2 C 8.5647 -2.4964 0.0 0
M  V30 3 C 7.5865 -2.7043 0.0 0
M  V30 4 C 9.2338 -3.2395 0.0 0
M  V30 5 C 7.2775 -3.6554 0.0 0
M  V30 6 C 6.9174 -1.9612 0.0 0
M  V30 7 C 8.9248 -4.1906 0.0 0
M  V30 8 C 7.9466 -4.3985 0.0 0
M  V30 9 N 5.9392 -2.1691 0.0 0
M  V30 10 F 9.5939 -4.9337 0.0 0
M  V30 11 C 5.1961 -1.4999 0.0 0
M  V30 12 C 5.5325 -3.0826 0.0 0
M  V30 13 C 4.3301 -1.9999 0.0 0
M  V30 14 C 5.1961 -0.4999 0.0 0
M  V30 15 C 4.538 -2.9781 0.0 0
M  V30 16 C 3.4641 -1.5 0.0 0
M  V30 17 C 4.3301 0.0 0.0 0
M  V30 18 C 3.4641 -0.5 0.0 0
M  V30 19 C 2.598 0.0 0.0 0
M  V30 20 O 2.598 1.0 0.0 0
M  V30 21 N 1.732 -0.5 0.0 0
M  V30 22 C 0.866 0.0 0.0 0
M  V30 23 C 0.0 -0.5 0.0 0
M  V30 24 C -0.866 0.0 0.0 0
M  V30 25 C 0.0 -1.4999 0.0 0
M  V30 26 C -1.732 -0.4999 0.0 0
M  V30 27 C -0.866 -1.9999 0.0 0
M  V30 28 C -1.732 -1.4999 0.0 0
M  V30 END ATOM
M  V30 BEGIN BOND
M  V30 1 1 1 2
M  V30 2 2 2 3
M  V30 3 1 2 4
M  V30 4 1 3 5
M  V30 5 1 3 6
M  V30 6 2 4 7
M  V30 7 2 5 8
M  V30 8 1 6 9
M  V30 9 1 7 10
M  V30 10 1 9 11
M  V30 11 1 9 12
M  V30 12 2 11 13
M  V30 13 1 11 14
M  V30 14 2 12 15
M  V30 15 1 13 16
M  V30 16 2 14 17
M  V30 17 2 16 18
M  V30 18 1 18 19
M  V30 19 2 19 20
M  V30 20 1 19 21
M  V30 21 1 21 22
M  V30 22 1 22 23
M  V30 23 2 23 24
M  V30 24 1 23 25
M  V30 25 1 24 26
M  V30 26 2 25 27
M  V30 27 2 26 28
M  V30 28 1 7 8
M  V30 29 1 13 15
M  V30 30 1 17 18
M  V30 31 1 27 28
M  V30 END BOND
M  V30 END CTAB
M  END
>  <Molecule ChEMBL ID>
CHEMBL3678087

>  <Smiles>
O=C(NCc1ccccc1)c1ccc2c(ccn2Cc2ccc(F)cc2F)c1

>  <IC50_nM>
5

>  <Assay Description>
Lanthascreen Competitive Binding Assay: The assay was performed according to manufacturer protocol. A mixture of 5 nM GST-PPARG-LBD, 5 nM Tb-GST-antibody, 5 nM Fluormone Pan- PPAR Green, and serial dilutions of the experimental compound, beginning at 10 ׬� downwards, was added to wells of black 384-well low- volume plates (Greiner) to a total volume of 18 xL. All dilutions were made in TR-FRET assay buffer C. DMSO at 2% final concentration was used as a no-ligand control. Experiment was performed in triplicate, and incubated for 2 hours in the dark prior to assay read in Perkin Elmer ViewLux ultra HTS microplate reader. FRET signal was measured by excitation at 340 nm and emission at 520 nm for fluorescein and 490 nm for terbium.

$$$$
CHEMBL3699397
Actelion Java MolfileCreator 2.0

  0  0  0  0  0  0              0 V3000
M  V30 BEGIN CTAB
M  V30 COUNTS 41 45 0 0 0
M  V30 BEGIN ATOM
M  V30 1 O 11.8592 -3.5669 0.0 0
M  V30 2 C 10.8811 -3.7748 0.0 0
M  V30 3 O 10.212 -3.0316 0.0 0
M  V30 4 C 10.5721 -4.7258 0.0 0
M  V30 5 C 9.5939 -4.9337 0.0 0
M  V30 6 C 11.2412 -5.469 0.0 0
M  V30 7 C 8.9248 -4.1906 0.0 0
M  V30 8 C 9.2849 -5.8848 0.0 0
M  V30 9 C 10.9322 -6.42 0.0 0
M  V30 10 C 9.2338 -3.2395 0.0 0
M  V30 11 C 7.9466 -4.3985 0.0 0
M  V30 12 C 9.954 -6.6279 0.0 0
M  V30 13 C 8.5647 -2.4964 0.0 0
M  V30 14 C 7.2775 -3.6554 0.0 0
M  V30 15 C 7.5865 -2.7043 0.0 0
M  V30 16 C 6.9174 -1.9612 0.0 0
M  V30 17 N 5.9392 -2.1691 0.0 0
M  V30 18 C 5.1961 -1.4999 0.0 0
M  V30 19 C 5.5325 -3.0826 0.0 0
M  V30 20 C 4.3301 -1.9999 0.0 0
M  V30 21 C 5.1961 -0.4999 0.0 0
M  V30 22 C 4.538 -2.9781 0.0 0
M  V30 23 C 6.0325 -3.9487 0.0 0
M  V30 24 C 3.4641 -1.5 0.0 0
M  V30 25 C 4.3301 0.0 0.0 0
M  V30 26 C 3.8689 -3.7212 0.0 0
M  V30 27 C 3.4641 -0.5 0.0 0
M  V30 28 C 2.598 0.0 0.0 0
M  V30 29 O 2.598 1.0 0.0 0
M  V30 30 N 1.732 -0.5 0.0 0
M  V30 31 C 0.866 0.0 0.0 0 CFG=2
M  V30 32 C 0.866 1.0 0.0 0
M  V30 33 C 0.0 -0.5 0.0 0
M  V30 34 C 1.732 1.5 0.0 0
M  V30 35 C 0.0 1.4999 0.0 0
M  V30 36 C 1.732 2.5 0.0 0
M  V30 37 C 0.0 2.4999 0.0 0
M  V30 38 C 0.866 3.0 0.0 0
M  V30 39 O 0.866 3.9999 0.0 0
M  V30 40 C 1.732 4.5 0.0 0
M  V30 41 C 1.732 5.5 0.0 0
M  V30 END ATOM
M  V30 BEGIN BOND
M  V30 1 2 1 2
M  V30 2 1 2 3
M  V30 3 1 2 4
M  V30 4 2 4 5
M  V30 5 1 4 6
M  V30 6 1 5 7
M  V30 7 1 5 8
M  V30 8 2 6 9
M  V30 9 2 7 10
M  V30 10 1 7 11
M  V30 11 2 8 12
M  V30 12 1 10 13
M  V30 13 2 11 14
M  V30 14 2 13 15
M  V30 15 1 15 16
M  V30 16 1 16 17
M  V30 17 1 17 18
M  V30 18 1 17 19
M  V30 19 2 18 20
M  V30 20 1 18 21
M  V30 21 2 19 22
M  V30 22 1 19 23
M  V30 23 1 20 24
M  V30 24 2 21 25
M  V30 25 1 22 26
M  V30 26 2 24 27
M  V30 27 1 27 28
M  V30 28 2 28 29
M  V30 29 1 28 30
M  V30 30 1 30 31
M  V30 31 1 31 32
M  V30 32 1 31 33 CFG=1
M  V30 33 2 32 34
M  V30 34 1 32 35
M  V30 35 1 34 36
M  V30 36 2 35 37
M  V30 37 2 36 38
M  V30 38 1 38 39
M  V30 39 1 39 40
M  V30 40 1 40 41
M  V30 41 1 9 12
M  V30 42 1 14 15
M  V30 43 1 20 22
M  V30 44 1 25 27
M  V30 45 1 37 38
M  V30 END BOND
M  V30 BEGIN COLLECTION
M  V30 MDLV30/STEABS ATOMS=(1 31)
M  V30 END COLLECTION
M  V30 END CTAB
M  END
>  <Molecule ChEMBL ID>
CHEMBL3699397

>  <Smiles>
CCOc1ccc([C@H](C)NC(=O)c2ccc3c(c2)c(C)c(C)n3Cc2ccc(-c3ccccc3C(=O)O)cc2)cc1

>  <IC50_nM>
5

>  <Assay Description>
Binding affinity to GST-tagged PPAR-gamma-LBD (unknown origin) after 2 hrs by Lantha screen assay using fluormone Pan-PPAR green probe

$$$$
CHEMBL3695814
Actelion Java MolfileCreator 2.0

  0  0  0  0  0  0              0 V3000
M  V30 BEGIN CTAB
M  V30 COUNTS 38 42 0 0 0
M  V30 BEGIN ATOM
M  V30 1 F 9.0932 -3.0 0.0 0
M  V30 2 C 7.7942 -2.25 0.0 0
M  V30 3 C 7.7942 -0.75 0.0 0
M  V30 4 C 6.4951 -2.9999 0.0 0
M  V30 5 C 6.4951 0.0 0.0 0
M  V30 6 C 5.1961 -2.25 0.0 0
M  V30 7 C 5.1961 -0.75 0.0 0
M  V30 8 C 3.8971 0.0 0.0 0
M  V30 9 N 2.598 -0.75 0.0 0
M  V30 10 C 1.299 0.0 0.0 0
M  V30 11 O 1.299 1.5 0.0 0
M  V30 12 C 0.0 -0.75 0.0 0
M  V30 13 C 0.0 -2.25 0.0 0
M  V30 14 C -1.299 0.0 0.0 0
M  V30 15 C -1.299 -2.9999 0.0 0
M  V30 16 C -2.598 -0.7499 0.0 0
M  V30 17 C -2.598 -2.2499 0.0 0
M  V30 18 C -1.6109 -4.4672 0.0 0
M  V30 19 N -3.7127 -3.2536 0.0 0
M  V30 20 C -3.1026 -4.624 0.0 0
M  V30 21 C -0.6072 -5.5819 0.0 0
M  V30 22 C -5.18 -2.9418 0.0 0
M  V30 23 C -3.8526 -5.923 0.0 0
M  V30 24 C -6.1837 -4.0565 0.0 0
M  V30 25 C -7.6509 -3.7446 0.0 0
M  V30 26 C -5.7201 -5.4831 0.0 0
M  V30 27 C -8.6546 -4.8593 0.0 0
M  V30 28 C -6.7238 -6.5978 0.0 0
M  V30 29 C -8.1911 -6.2859 0.0 0
M  V30 30 C -9.1947 -7.4006 0.0 0
M  V30 31 C -10.662 -7.0888 0.0 0
M  V30 32 C -8.7312 -8.8272 0.0 0
M  V30 33 C -11.1255 -5.6622 0.0 0
M  V30 34 C -11.6657 -8.2035 0.0 0
M  V30 35 C -9.7349 -9.9419 0.0 0
M  V30 36 O -10.1218 -4.5475 0.0 0
M  V30 37 O -12.5927 -5.3503 0.0 0
M  V30 38 C -11.2021 -9.6301 0.0 0
M  V30 END ATOM
M  V30 BEGIN BOND
M  V30 1 1 1 2
M  V30 2 2 2 3
M  V30 3 1 2 4
M  V30 4 1 3 5
M  V30 5 2 4 6
M  V30 6 2 5 7
M  V30 7 1 7 8
M  V30 8 1 8 9
M  V30 9 1 9 10
M  V30 10 2 10 11
M  V30 11 1 10 12
M  V30 12 2 12 13
M  V30 13 1 12 14
M  V30 14 1 13 15
M  V30 15 2 14 16
M  V30 16 2 15 17
M  V30 17 1 15 18
M  V30 18 1 17 19
M  V30 19 2 18 20
M  V30 20 1 18 21
M  V30 21 1 19 22
M  V30 22 1 20 23
M  V30 23 1 22 24
M  V30 24 2 24 25
M  V30 25 1 24 26
M  V30 26 1 25 27
M  V30 27 2 26 28
M  V30 28 2 27 29
M  V30 29 1 29 30
M  V30 30 2 30 31
M  V30 31 1 30 32
M  V30 32 1 31 33
M  V30 33 1 31 34
M  V30 34 2 32 35
M  V30 35 2 33 36
M  V30 36 1 33 37
M  V30 37 2 34 38
M  V30 38 1 6 7
M  V30 39 1 16 17
M  V30 40 1 19 20
M  V30 41 1 28 29
M  V30 42 1 35 38
M  V30 END BOND
M  V30 END CTAB
M  END
>  <Molecule ChEMBL ID>
CHEMBL3695814

>  <Smiles>
Cc1c(C)n(Cc2ccc(-c3ccccc3C(=O)O)cc2)c2ccc(C(=O)NCc3ccc(F)cc3)cc12

>  <IC50_nM>
5

>  <Assay Description>
Lanthascreen Competitive Binding Assay: The assay was performed according to manufacturer protocol. A mixture of nM GST-PPARG-LBD, 5 nM Tb-GST-antibody, 5 nM Fluormone Pan-PPAR Green, and serial dilutions of the experimental compound, beginning at 10 ׬M downwards, was added to wells of black 384-well low-volume plates (Greiner) to a total volume of 18 ׬L. All dilutions were made in TR-FRET assay buffer C. DMSO at 2% final concentration was used as a no-ligand control. Experiment was performed in triplicate, and incubated for 2 hours in the dark prior to assay read in Perkin Elmer ViewLux ultra HTS microplate reader. FRET signal was measured by excitation at 340 nm and emission at 520 nm for fluorescein and 490 nm for terbium. Fold change over DMSO was calculated using GraphPad Prism Software (La Jolla, Calif.) by calculating 520 nm/490 nm ratio. Graphs were plotted as fold change of FRET signal for compound treatment over DMSO-only control.

$$$$
CHEMBL212911
Actelion Java MolfileCreator 2.0

  0  0  0  0  0  0              0 V3000
M  V30 BEGIN CTAB
M  V30 COUNTS 34 36 0 0 0
M  V30 BEGIN ATOM
M  V30 1 O 5.1961 1.5 0.0 0
M  V30 2 C 6.0621 1.0 0.0 0
M  V30 3 C 6.0621 0.0 0.0 0
M  V30 4 C 6.9282 1.5 0.0 0
M  V30 5 C 5.1961 -0.5 0.0 0
M  V30 6 C 6.9282 -0.4999 0.0 0
M  V30 7 C 7.7942 0.9999 0.0 0
M  V30 8 C 6.9282 2.4999 0.0 0
M  V30 9 O 4.3301 0.0 0.0 0
M  V30 10 C 5.1961 -1.4999 0.0 0
M  V30 11 C 6.9282 -1.4999 0.0 0
M  V30 12 C 8.6602 1.4999 0.0 0
M  V30 13 C 7.7942 2.9999 0.0 0
M  V30 14 C 3.4641 -0.5 0.0 0 CFG=1
M  V30 15 C 6.0621 -1.9999 0.0 0
M  V30 16 C 7.7942 -1.9999 0.0 0
M  V30 17 C 8.6602 2.4999 0.0 0
M  V30 18 C 2.598 0.0 0.0 0
M  V30 19 C 3.4641 -1.5 0.0 0
M  V30 20 C 8.6602 -1.4999 0.0 0
M  V30 21 C 1.732 -0.5 0.0 0
M  V30 22 O 0.866 0.0 0.0 0
M  V30 23 C 0.0 -0.5 0.0 0
M  V30 24 C -0.866 0.0 0.0 0
M  V30 25 C 0.0 -1.4999 0.0 0
M  V30 26 C -1.732 -0.4999 0.0 0
M  V30 27 C -0.866 -1.9999 0.0 0
M  V30 28 C -1.732 -1.4999 0.0 0
M  V30 29 C -2.598 0.0 0.0 0
M  V30 30 C -2.598 -1.9999 0.0 0
M  V30 31 C -2.598 -2.9999 0.0 0
M  V30 32 C -3.4641 -3.4999 0.0 0
M  V30 33 O -4.3301 -2.9999 0.0 0
M  V30 34 O -3.4641 -4.4999 0.0 0
M  V30 END ATOM
M  V30 BEGIN BOND
M  V30 1 2 1 2
M  V30 2 1 2 3
M  V30 3 1 2 4
M  V30 4 2 3 5
M  V30 5 1 3 6
M  V30 6 2 4 7
M  V30 7 1 4 8
M  V30 8 1 5 9
M  V30 9 1 5 10
M  V30 10 2 6 11
M  V30 11 1 7 12
M  V30 12 2 8 13
M  V30 13 1 9 14
M  V30 14 2 10 15
M  V30 15 1 11 16
M  V30 16 2 12 17
M  V30 17 1 14 18
M  V30 18 1 14 19 CFG=3
M  V30 19 1 16 20
M  V30 20 1 18 21
M  V30 21 1 21 22
M  V30 22 1 22 23
M  V30 23 2 23 24
M  V30 24 1 23 25
M  V30 25 1 24 26
M  V30 26 2 25 27
M  V30 27 2 26 28
M  V30 28 1 26 29
M  V30 29 1 28 30
M  V30 30 1 30 31
M  V30 31 1 31 32
M  V30 32 2 32 33
M  V30 33 1 32 34
M  V30 34 1 11 15
M  V30 35 1 13 17
M  V30 36 1 27 28
M  V30 END BOND
M  V30 BEGIN COLLECTION
M  V30 MDLV30/STEABS ATOMS=(1 14)
M  V30 END COLLECTION
M  V30 END CTAB
M  END
>  <Molecule ChEMBL ID>
CHEMBL212911

>  <Smiles>
CCc1ccc(O[C@H](C)CCOc2ccc(CCC(=O)O)c(C)c2)c(C(=O)c2ccccc2)c1

>  <IC50_nM>
5

>  <Assay Description>
Displacement of [3H]2-methyl-2-(4-{3-[porpyl-(5-pyridin-2yl-thiophene-2-sulfonyl)-amino]-propyl}-phenoxy)-propionic acid from human PPARgamma

$$$$
CHEMBL3695839
Actelion Java MolfileCreator 2.0

  0  0  0  0  0  0              0 V3000
M  V30 BEGIN CTAB
M  V30 COUNTS 38 42 0 0 0
M  V30 BEGIN ATOM
M  V30 1 O 11.8592 -3.5669 0.0 0
M  V30 2 C 10.8811 -3.7748 0.0 0
M  V30 3 O 10.212 -3.0316 0.0 0
M  V30 4 C 10.5721 -4.7258 0.0 0
M  V30 5 C 9.5939 -4.9337 0.0 0
M  V30 6 C 11.2412 -5.469 0.0 0
M  V30 7 C 8.9248 -4.1906 0.0 0
M  V30 8 C 9.2849 -5.8848 0.0 0
M  V30 9 C 10.9322 -6.42 0.0 0
M  V30 10 C 9.2338 -3.2395 0.0 0
M  V30 11 C 7.9466 -4.3985 0.0 0
M  V30 12 C 9.954 -6.6279 0.0 0
M  V30 13 C 8.5647 -2.4964 0.0 0
M  V30 14 C 7.2775 -3.6554 0.0 0
M  V30 15 C 7.5865 -2.7043 0.0 0
M  V30 16 C 6.9174 -1.9612 0.0 0
M  V30 17 N 5.9392 -2.1691 0.0 0
M  V30 18 C 5.1961 -1.4999 0.0 0
M  V30 19 C 5.5325 -3.0826 0.0 0
M  V30 20 C 4.3301 -1.9999 0.0 0
M  V30 21 C 5.1961 -0.4999 0.0 0
M  V30 22 C 4.538 -2.9781 0.0 0
M  V30 23 C 6.0325 -3.9487 0.0 0
M  V30 24 C 3.4641 -1.5 0.0 0
M  V30 25 C 4.3301 0.0 0.0 0
M  V30 26 C 3.8689 -3.7212 0.0 0
M  V30 27 C 3.4641 -0.5 0.0 0
M  V30 28 C 2.598 0.0 0.0 0
M  V30 29 O 2.598 1.0 0.0 0
M  V30 30 N 1.732 -0.5 0.0 0
M  V30 31 C 0.866 0.0 0.0 0
M  V30 32 C 0.0 -0.5 0.0 0
M  V30 33 C -0.866 0.0 0.0 0
M  V30 34 C 0.0 -1.4999 0.0 0
M  V30 35 C -1.732 -0.4999 0.0 0
M  V30 36 C -0.866 -1.9999 0.0 0
M  V30 37 C -1.732 -1.4999 0.0 0
M  V30 38 C -2.598 0.0 0.0 0
M  V30 END ATOM
M  V30 BEGIN BOND
M  V30 1 2 1 2
M  V30 2 1 2 3
M  V30 3 1 2 4
M  V30 4 2 4 5
M  V30 5 1 4 6
M  V30 6 1 5 7
M  V30 7 1 5 8
M  V30 8 2 6 9
M  V30 9 2 7 10
M  V30 10 1 7 11
M  V30 11 2 8 12
M  V30 12 1 10 13
M  V30 13 2 11 14
M  V30 14 2 13 15
M  V30 15 1 15 16
M  V30 16 1 16 17
M  V30 17 1 17 18
M  V30 18 1 17 19
M  V30 19 2 18 20
M  V30 20 1 18 21
M  V30 21 2 19 22
M  V30 22 1 19 23
M  V30 23 1 20 24
M  V30 24 2 21 25
M  V30 25 1 22 26
M  V30 26 2 24 27
M  V30 27 1 27 28
M  V30 28 2 28 29
M  V30 29 1 28 30
M  V30 30 1 30 31
M  V30 31 1 31 32
M  V30 32 2 32 33
M  V30 33 1 32 34
M  V30 34 1 33 35
M  V30 35 2 34 36
M  V30 36 2 35 37
M  V30 37 1 35 38
M  V30 38 1 9 12
M  V30 39 1 14 15
M  V30 40 1 20 22
M  V30 41 1 25 27
M  V30 42 1 36 37
M  V30 END BOND
M  V30 END CTAB
M  END
>  <Molecule ChEMBL ID>
CHEMBL3695839

>  <Smiles>
Cc1cccc(CNC(=O)c2ccc3c(c2)c(C)c(C)n3Cc2ccc(-c3ccccc3C(=O)O)cc2)c1

>  <IC50_nM>
5

>  <Assay Description>
Binding affinity to GST-tagged PPAR-gamma-LBD (unknown origin) after 2 hrs by Lantha screen assay using fluormone Pan-PPAR green probe

$$$$
CHEMBL3695761
Actelion Java MolfileCreator 2.0

  0  0  0  0  0  0              0 V3000
M  V30 BEGIN CTAB
M  V30 COUNTS 39 43 0 0 0
M  V30 BEGIN ATOM
M  V30 1 O 2.598 -0.75 0.0 0
M  V30 2 C 3.8971 0.0 0.0 0
M  V30 3 N 5.1961 -0.7499 0.0 0
M  V30 4 C 3.8971 1.5 0.0 0
M  V30 5 C 6.4951 0.0 0.0 0 CFG=2
M  V30 6 C 2.598 2.2499 0.0 0
M  V30 7 C 5.1961 2.25 0.0 0
M  V30 8 C 7.7942 -0.7499 0.0 0
M  V30 9 C 6.4951 1.5 0.0 0
M  V30 10 C 2.598 3.75 0.0 0
M  V30 11 C 5.1961 3.75 0.0 0
M  V30 12 C 7.7942 -2.2499 0.0 0
M  V30 13 C 9.0932 0.0 0.0 0
M  V30 14 C 3.8971 4.5 0.0 0
M  V30 15 C 1.4833 4.7536 0.0 0
M  V30 16 C 9.0932 -2.9999 0.0 0
M  V30 17 C 10.3923 -0.7499 0.0 0
M  V30 18 N 3.5852 5.9672 0.0 0
M  V30 19 C 2.0934 6.124 0.0 0
M  V30 20 C 0.0161 4.4418 0.0 0
M  V30 21 C 10.3923 -2.2499 0.0 0
M  V30 22 C 4.5889 7.0819 0.0 0
M  V30 23 C 1.3434 7.423 0.0 0
M  V30 24 C 11.6913 -2.9999 0.0 0
M  V30 25 C 4.1254 8.5085 0.0 0
M  V30 26 C 12.4413 -1.7009 0.0 0
M  V30 27 C 12.9903 -3.7499 0.0 0
M  V30 28 C 10.9413 -4.299 0.0 0
M  V30 29 C 5.1291 9.6232 0.0 0
M  V30 30 C 2.6581 8.8203 0.0 0
M  V30 31 C 4.6655 11.0498 0.0 0
M  V30 32 C 2.1946 10.2469 0.0 0
M  V30 33 C 3.1983 11.3616 0.0 0
M  V30 34 C 2.7348 12.7882 0.0 0
M  V30 35 C 3.7385 13.9029 0.0 0
M  V30 36 C 1.2676 13.1001 0.0 0
M  V30 37 C 3.275 15.3295 0.0 0
M  V30 38 C 0.804 14.5267 0.0 0
M  V30 39 C 1.8077 15.6414 0.0 0
M  V30 END ATOM
M  V30 BEGIN BOND
M  V30 1 2 1 2
M  V30 2 1 2 3
M  V30 3 1 2 4
M  V30 4 1 3 5
M  V30 5 2 4 6
M  V30 6 1 4 7
M  V30 7 1 5 8
M  V30 8 1 5 9 CFG=1
M  V30 9 1 6 10
M  V30 10 2 7 11
M  V30 11 2 8 12
M  V30 12 1 8 13
M  V30 13 2 10 14
M  V30 14 1 10 15
M  V30 15 1 12 16
M  V30 16 2 13 17
M  V30 17 1 14 18
M  V30 18 2 15 19
M  V30 19 1 15 20
M  V30 20 2 16 21
M  V30 21 1 18 22
M  V30 22 1 19 23
M  V30 23 1 21 24
M  V30 24 1 22 25
M  V30 25 1 24 26
M  V30 26 1 24 27
M  V30 27 1 24 28
M  V30 28 2 25 29
M  V30 29 1 25 30
M  V30 30 1 29 31
M  V30 31 2 30 32
M  V30 32 2 31 33
M  V30 33 1 33 34
M  V30 34 2 34 35
M  V30 35 1 34 36
M  V30 36 1 35 37
M  V30 37 2 36 38
M  V30 38 2 37 39
M  V30 39 1 11 14
M  V30 40 1 17 21
M  V30 41 1 18 19
M  V30 42 1 32 33
M  V30 43 1 38 39
M  V30 END BOND
M  V30 BEGIN COLLECTION
M  V30 MDLV30/STEABS ATOMS=(1 5)
M  V30 END COLLECTION
M  V30 END CTAB
M  END
>  <Molecule ChEMBL ID>
CHEMBL3695761

>  <Smiles>
Cc1c(C)n(Cc2ccc(-c3ccccc3)cc2)c2ccc(C(=O)N[C@@H](C)c3ccc(C(C)(C)C)cc3)cc12

>  <IC50_nM>
5

>  <Assay Description>
Lanthascreen Competitive Binding Assay: The assay was performed according to manufacturer protocol. A mixture of nM GST-PPARG-LBD, 5 nM Tb-GST-antibody, 5 nM Fluormone Pan-PPAR Green, and serial dilutions of the experimental compound, beginning at 10 ׬M downwards, was added to wells of black 384-well low-volume plates (Greiner) to a total volume of 18 ׬L. All dilutions were made in TR-FRET assay buffer C. DMSO at 2% final concentration was used as a no-ligand control. Experiment was performed in triplicate, and incubated for 2 hours in the dark prior to assay read in Perkin Elmer ViewLux ultra HTS microplate reader. FRET signal was measured by excitation at 340 nm and emission at 520 nm for fluorescein and 490 nm for terbium. Fold change over DMSO was calculated using GraphPad Prism Software (La Jolla, Calif.) by calculating 520 nm/490 nm ratio. Graphs were plotted as fold change of FRET signal for compound treatment over DMSO-only control.

$$$$
CHEMBL3695873
Actelion Java MolfileCreator 2.0

  0  0  0  0  0  0              0 V3000
M  V30 BEGIN CTAB
M  V30 COUNTS 37 41 0 0 0
M  V30 BEGIN ATOM
M  V30 1 F 4.3301 0.9999 0.0 0
M  V30 2 C 4.3301 0.0 0.0 0
M  V30 3 C 3.4641 -0.5 0.0 0
M  V30 4 C 5.1961 -0.5 0.0 0
M  V30 5 C 3.4641 -1.5 0.0 0
M  V30 6 C 2.598 0.0 0.0 0 CFG=1
M  V30 7 C 5.1961 -1.5 0.0 0
M  V30 8 C 4.3301 -2.0 0.0 0
M  V30 9 N 1.732 -0.5 0.0 0
M  V30 10 C 2.598 1.0 0.0 0
M  V30 11 F 6.0621 -2.0 0.0 0
M  V30 12 C 0.866 0.0 0.0 0
M  V30 13 O 0.866 1.0 0.0 0
M  V30 14 C 0.0 -0.5 0.0 0
M  V30 15 C 0.0 -1.4999 0.0 0
M  V30 16 C -0.866 0.0 0.0 0
M  V30 17 C -0.866 -1.9999 0.0 0
M  V30 18 C -1.732 -0.4999 0.0 0
M  V30 19 C -1.732 -1.4999 0.0 0
M  V30 20 C -1.0739 -2.9781 0.0 0
M  V30 21 N -2.4751 -2.1691 0.0 0
M  V30 22 C -2.0684 -3.0826 0.0 0
M  V30 23 C -0.4048 -3.7212 0.0 0
M  V30 24 C -3.4533 -1.9612 0.0 0
M  V30 25 C -2.5684 -3.9487 0.0 0
M  V30 26 C -4.1224 -2.7043 0.0 0
M  V30 27 C -5.1006 -2.4964 0.0 0
M  V30 28 C -3.8134 -3.6554 0.0 0
M  V30 29 C -5.7697 -3.2395 0.0 0
M  V30 30 C -4.4825 -4.3985 0.0 0
M  V30 31 C -5.4607 -4.1906 0.0 0
M  V30 32 C -6.1298 -4.9337 0.0 0
M  V30 33 C -7.108 -4.7258 0.0 0
M  V30 34 C -5.8208 -5.8848 0.0 0
M  V30 35 C -7.7771 -5.469 0.0 0
M  V30 36 C -6.4899 -6.6279 0.0 0
M  V30 37 C -7.4681 -6.42 0.0 0
M  V30 END ATOM
M  V30 BEGIN BOND
M  V30 1 1 1 2
M  V30 2 2 2 3
M  V30 3 1 2 4
M  V30 4 1 3 5
M  V30 5 1 3 6
M  V30 6 2 4 7
M  V30 7 2 5 8
M  V30 8 1 6 9
M  V30 9 1 6 10 CFG=1
M  V30 10 1 7 11
M  V30 11 1 9 12
M  V30 12 2 12 13
M  V30 13 1 12 14
M  V30 14 2 14 15
M  V30 15 1 14 16
M  V30 16 1 15 17
M  V30 17 2 16 18
M  V30 18 2 17 19
M  V30 19 1 17 20
M  V30 20 1 19 21
M  V30 21 2 20 22
M  V30 22 1 20 23
M  V30 23 1 21 24
M  V30 24 1 22 25
M  V30 25 1 24 26
M  V30 26 2 26 27
M  V30 27 1 26 28
M  V30 28 1 27 29
M  V30 29 2 28 30
M  V30 30 2 29 31
M  V30 31 1 31 32
M  V30 32 2 32 33
M  V30 33 1 32 34
M  V30 34 1 33 35
M  V30 35 2 34 36
M  V30 36 2 35 37
M  V30 37 1 7 8
M  V30 38 1 18 19
M  V30 39 1 21 22
M  V30 40 1 30 31
M  V30 41 1 36 37
M  V30 END BOND
M  V30 BEGIN COLLECTION
M  V30 MDLV30/STEABS ATOMS=(1 6)
M  V30 END COLLECTION
M  V30 END CTAB
M  END
>  <Molecule ChEMBL ID>
CHEMBL3695873

>  <Smiles>
Cc1c(C)n(Cc2ccc(-c3ccccc3)cc2)c2ccc(C(=O)N[C@@H](C)c3ccc(F)cc3F)cc12

>  <IC50_nM>
5

>  <Assay Description>
Lanthascreen Competitive Binding Assay: The assay was performed according to manufacturer protocol. A mixture of nM GST-PPARG-LBD, 5 nM Tb-GST-antibody, 5 nM Fluormone Pan-PPAR Green, and serial dilutions of the experimental compound, beginning at 10 ׬M downwards, was added to wells of black 384-well low-volume plates (Greiner) to a total volume of 18 ׬L. All dilutions were made in TR-FRET assay buffer C. DMSO at 2% final concentration was used as a no-ligand control. Experiment was performed in triplicate, and incubated for 2 hours in the dark prior to assay read in Perkin Elmer ViewLux ultra HTS microplate reader. FRET signal was measured by excitation at 340 nm and emission at 520 nm for fluorescein and 490 nm for terbium. Fold change over DMSO was calculated using GraphPad Prism Software (La Jolla, Calif.) by calculating 520 nm/490 nm ratio. Graphs were plotted as fold change of FRET signal for compound treatment over DMSO-only control.

$$$$
CHEMBL3695839
Actelion Java MolfileCreator 2.0

  0  0  0  0  0  0              0 V3000
M  V30 BEGIN CTAB
M  V30 COUNTS 38 42 0 0 0
M  V30 BEGIN ATOM
M  V30 1 O 11.8592 -3.5669 0.0 0
M  V30 2 C 10.8811 -3.7748 0.0 0
M  V30 3 O 10.212 -3.0316 0.0 0
M  V30 4 C 10.5721 -4.7258 0.0 0
M  V30 5 C 9.5939 -4.9337 0.0 0
M  V30 6 C 11.2412 -5.469 0.0 0
M  V30 7 C 8.9248 -4.1906 0.0 0
M  V30 8 C 9.2849 -5.8848 0.0 0
M  V30 9 C 10.9322 -6.42 0.0 0
M  V30 10 C 9.2338 -3.2395 0.0 0
M  V30 11 C 7.9466 -4.3985 0.0 0
M  V30 12 C 9.954 -6.6279 0.0 0
M  V30 13 C 8.5647 -2.4964 0.0 0
M  V30 14 C 7.2775 -3.6554 0.0 0
M  V30 15 C 7.5865 -2.7043 0.0 0
M  V30 16 C 6.9174 -1.9612 0.0 0
M  V30 17 N 5.9392 -2.1691 0.0 0
M  V30 18 C 5.1961 -1.4999 0.0 0
M  V30 19 C 5.5325 -3.0826 0.0 0
M  V30 20 C 4.3301 -1.9999 0.0 0
M  V30 21 C 5.1961 -0.4999 0.0 0
M  V30 22 C 4.538 -2.9781 0.0 0
M  V30 23 C 6.0325 -3.9487 0.0 0
M  V30 24 C 3.4641 -1.5 0.0 0
M  V30 25 C 4.3301 0.0 0.0 0
M  V30 26 C 3.8689 -3.7212 0.0 0
M  V30 27 C 3.4641 -0.5 0.0 0
M  V30 28 C 2.598 0.0 0.0 0
M  V30 29 O 2.598 1.0 0.0 0
M  V30 30 N 1.732 -0.5 0.0 0
M  V30 31 C 0.866 0.0 0.0 0
M  V30 32 C 0.0 -0.5 0.0 0
M  V30 33 C -0.866 0.0 0.0 0
M  V30 34 C 0.0 -1.4999 0.0 0
M  V30 35 C -1.732 -0.4999 0.0 0
M  V30 36 C -0.866 -1.9999 0.0 0
M  V30 37 C -1.732 -1.4999 0.0 0
M  V30 38 C -2.598 0.0 0.0 0
M  V30 END ATOM
M  V30 BEGIN BOND
M  V30 1 2 1 2
M  V30 2 1 2 3
M  V30 3 1 2 4
M  V30 4 2 4 5
M  V30 5 1 4 6
M  V30 6 1 5 7
M  V30 7 1 5 8
M  V30 8 2 6 9
M  V30 9 2 7 10
M  V30 10 1 7 11
M  V30 11 2 8 12
M  V30 12 1 10 13
M  V30 13 2 11 14
M  V30 14 2 13 15
M  V30 15 1 15 16
M  V30 16 1 16 17
M  V30 17 1 17 18
M  V30 18 1 17 19
M  V30 19 2 18 20
M  V30 20 1 18 21
M  V30 21 2 19 22
M  V30 22 1 19 23
M  V30 23 1 20 24
M  V30 24 2 21 25
M  V30 25 1 22 26
M  V30 26 2 24 27
M  V30 27 1 27 28
M  V30 28 2 28 29
M  V30 29 1 28 30
M  V30 30 1 30 31
M  V30 31 1 31 32
M  V30 32 2 32 33
M  V30 33 1 32 34
M  V30 34 1 33 35
M  V30 35 2 34 36
M  V30 36 2 35 37
M  V30 37 1 35 38
M  V30 38 1 9 12
M  V30 39 1 14 15
M  V30 40 1 20 22
M  V30 41 1 25 27
M  V30 42 1 36 37
M  V30 END BOND
M  V30 END CTAB
M  END
>  <Molecule ChEMBL ID>
CHEMBL3695839

>  <Smiles>
Cc1cccc(CNC(=O)c2ccc3c(c2)c(C)c(C)n3Cc2ccc(-c3ccccc3C(=O)O)cc2)c1

>  <IC50_nM>
5

>  <Assay Description>
Lanthascreen Competitive Binding Assay: The assay was performed according to manufacturer protocol. A mixture of nM GST-PPARG-LBD, 5 nM Tb-GST-antibody, 5 nM Fluormone Pan-PPAR Green, and serial dilutions of the experimental compound, beginning at 10 ׬M downwards, was added to wells of black 384-well low-volume plates (Greiner) to a total volume of 18 ׬L. All dilutions were made in TR-FRET assay buffer C. DMSO at 2% final concentration was used as a no-ligand control. Experiment was performed in triplicate, and incubated for 2 hours in the dark prior to assay read in Perkin Elmer ViewLux ultra HTS microplate reader. FRET signal was measured by excitation at 340 nm and emission at 520 nm for fluorescein and 490 nm for terbium. Fold change over DMSO was calculated using GraphPad Prism Software (La Jolla, Calif.) by calculating 520 nm/490 nm ratio. Graphs were plotted as fold change of FRET signal for compound treatment over DMSO-only control.

$$$$
CHEMBL3695903
Actelion Java MolfileCreator 2.0

  0  0  0  0  0  0              0 V3000
M  V30 BEGIN CTAB
M  V30 COUNTS 37 41 0 0 0
M  V30 BEGIN ATOM
M  V30 1 O 5.1961 -0.75 0.0 0
M  V30 2 C 3.8971 0.0 0.0 0
M  V30 3 N 2.598 -0.75 0.0 0
M  V30 4 C 3.8971 1.5 0.0 0
M  V30 5 C 1.299 0.0 0.0 0
M  V30 6 C 2.598 2.25 0.0 0
M  V30 7 C 5.1961 2.25 0.0 0
M  V30 8 C 0.0 -0.75 0.0 0
M  V30 9 C 2.598 3.75 0.0 0
M  V30 10 C 5.1961 3.75 0.0 0
M  V30 11 C -1.299 0.0 0.0 0
M  V30 12 C 0.0 -2.25 0.0 0
M  V30 13 C 3.8971 4.5 0.0 0
M  V30 14 C 1.4833 4.7536 0.0 0
M  V30 15 C -2.598 -0.7499 0.0 0
M  V30 16 C -1.299 -2.9999 0.0 0
M  V30 17 N 3.5852 5.9672 0.0 0
M  V30 18 C 2.0934 6.124 0.0 0
M  V30 19 C 0.0161 4.4418 0.0 0
M  V30 20 C -2.598 -2.2499 0.0 0
M  V30 21 C -3.8971 0.0 0.0 0
M  V30 22 C 4.5889 7.0819 0.0 0
M  V30 23 C 1.3434 7.423 0.0 0
M  V30 24 C -3.8971 1.5 0.0 0
M  V30 25 C -5.1961 -0.7499 0.0 0
M  V30 26 C 4.1254 8.5085 0.0 0
M  V30 27 C 5.1291 9.6232 0.0 0
M  V30 28 C 2.6581 8.8203 0.0 0
M  V30 29 C 4.6655 11.0498 0.0 0
M  V30 30 C 2.1946 10.2469 0.0 0
M  V30 31 C 3.1983 11.3616 0.0 0
M  V30 32 C 2.7348 12.7882 0.0 0
M  V30 33 C 3.7385 13.9029 0.0 0
M  V30 34 C 1.2676 13.1001 0.0 0
M  V30 35 C 3.275 15.3295 0.0 0
M  V30 36 C 0.804 14.5267 0.0 0
M  V30 37 C 1.8077 15.6414 0.0 0
M  V30 END ATOM
M  V30 BEGIN BOND
M  V30 1 2 1 2
M  V30 2 1 2 3
M  V30 3 1 2 4
M  V30 4 1 3 5
M  V30 5 2 4 6
M  V30 6 1 4 7
M  V30 7 1 5 8
M  V30 8 1 6 9
M  V30 9 2 7 10
M  V30 10 2 8 11
M  V30 11 1 8 12
M  V30 12 2 9 13
M  V30 13 1 9 14
M  V30 14 1 11 15
M  V30 15 2 12 16
M  V30 16 1 13 17
M  V30 17 2 14 18
M  V30 18 1 14 19
M  V30 19 2 15 20
M  V30 20 1 15 21
M  V30 21 1 17 22
M  V30 22 1 18 23
M  V30 23 1 21 24
M  V30 24 1 21 25
M  V30 25 1 22 26
M  V30 26 2 26 27
M  V30 27 1 26 28
M  V30 28 1 27 29
M  V30 29 2 28 30
M  V30 30 2 29 31
M  V30 31 1 31 32
M  V30 32 2 32 33
M  V30 33 1 32 34
M  V30 34 1 33 35
M  V30 35 2 34 36
M  V30 36 2 35 37
M  V30 37 1 10 13
M  V30 38 1 16 20
M  V30 39 1 17 18
M  V30 40 1 30 31
M  V30 41 1 36 37
M  V30 END BOND
M  V30 END CTAB
M  END
>  <Molecule ChEMBL ID>
CHEMBL3695903

>  <Smiles>
Cc1c(C)n(Cc2ccc(-c3ccccc3)cc2)c2ccc(C(=O)NCc3cccc(C(C)C)c3)cc12

>  <IC50_nM>
5

>  <Assay Description>
Lanthascreen Competitive Binding Assay: The assay was performed according to manufacturer protocol. A mixture of nM GST-PPARG-LBD, 5 nM Tb-GST-antibody, 5 nM Fluormone Pan-PPAR Green, and serial dilutions of the experimental compound, beginning at 10 ׬M downwards, was added to wells of black 384-well low-volume plates (Greiner) to a total volume of 18 ׬L. All dilutions were made in TR-FRET assay buffer C. DMSO at 2% final concentration was used as a no-ligand control. Experiment was performed in triplicate, and incubated for 2 hours in the dark prior to assay read in Perkin Elmer ViewLux ultra HTS microplate reader. FRET signal was measured by excitation at 340 nm and emission at 520 nm for fluorescein and 490 nm for terbium. Fold change over DMSO was calculated using GraphPad Prism Software (La Jolla, Calif.) by calculating 520 nm/490 nm ratio. Graphs were plotted as fold change of FRET signal for compound treatment over DMSO-only control.

$$$$
CHEMBL3735906
Actelion Java MolfileCreator 2.0

  0  0  0  0  0  0              0 V3000
M  V30 BEGIN CTAB
M  V30 COUNTS 42 46 0 0 0
M  V30 BEGIN ATOM
M  V30 1 O 11.8592 -3.5669 0.0 0
M  V30 2 C 10.8811 -3.7748 0.0 0
M  V30 3 O 10.212 -3.0316 0.0 0
M  V30 4 C 10.5721 -4.7258 0.0 0
M  V30 5 C 9.5939 -4.9337 0.0 0
M  V30 6 C 11.2412 -5.469 0.0 0
M  V30 7 C 8.9248 -4.1906 0.0 0
M  V30 8 C 9.2849 -5.8848 0.0 0
M  V30 9 C 10.9322 -6.42 0.0 0
M  V30 10 C 9.2338 -3.2395 0.0 0
M  V30 11 C 7.9466 -4.3985 0.0 0
M  V30 12 C 9.954 -6.6279 0.0 0
M  V30 13 C 8.5647 -2.4964 0.0 0
M  V30 14 C 7.2775 -3.6554 0.0 0
M  V30 15 C 7.5865 -2.7043 0.0 0
M  V30 16 C 6.9174 -1.9612 0.0 0
M  V30 17 N 5.9392 -2.1691 0.0 0
M  V30 18 C 5.1961 -1.4999 0.0 0
M  V30 19 C 5.5325 -3.0826 0.0 0
M  V30 20 C 4.3301 -1.9999 0.0 0
M  V30 21 C 5.1961 -0.4999 0.0 0
M  V30 22 C 4.538 -2.9781 0.0 0
M  V30 23 C 6.0325 -3.9487 0.0 0
M  V30 24 C 3.4641 -1.5 0.0 0
M  V30 25 C 4.3301 0.0 0.0 0
M  V30 26 C 3.8689 -3.7212 0.0 0
M  V30 27 C 3.4641 -0.5 0.0 0
M  V30 28 C 2.598 0.0 0.0 0
M  V30 29 O 2.598 1.0 0.0 0
M  V30 30 N 1.732 -0.5 0.0 0
M  V30 31 C 0.866 0.0 0.0 0 CFG=2
M  V30 32 C 0.866 1.0 0.0 0
M  V30 33 C 0.0 -0.5 0.0 0
M  V30 34 C 1.732 1.4999 0.0 0
M  V30 35 C 0.0 1.4999 0.0 0
M  V30 36 C 1.732 2.5 0.0 0
M  V30 37 C 0.0 2.5 0.0 0
M  V30 38 C 0.866 3.0 0.0 0
M  V30 39 C 2.598 3.0 0.0 0
M  V30 40 C 2.098 3.866 0.0 0
M  V30 41 C 3.4641 3.5 0.0 0
M  V30 42 C 3.098 2.1339 0.0 0
M  V30 END ATOM
M  V30 BEGIN BOND
M  V30 1 2 1 2
M  V30 2 1 2 3
M  V30 3 1 2 4
M  V30 4 2 4 5
M  V30 5 1 4 6
M  V30 6 1 5 7
M  V30 7 1 5 8
M  V30 8 2 6 9
M  V30 9 2 7 10
M  V30 10 1 7 11
M  V30 11 2 8 12
M  V30 12 1 10 13
M  V30 13 2 11 14
M  V30 14 2 13 15
M  V30 15 1 15 16
M  V30 16 1 16 17
M  V30 17 1 17 18
M  V30 18 1 17 19
M  V30 19 2 18 20
M  V30 20 1 18 21
M  V30 21 2 19 22
M  V30 22 1 19 23
M  V30 23 1 20 24
M  V30 24 2 21 25
M  V30 25 1 22 26
M  V30 26 2 24 27
M  V30 27 1 27 28
M  V30 28 2 28 29
M  V30 29 1 28 30
M  V30 30 1 30 31
M  V30 31 1 31 32
M  V30 32 1 31 33 CFG=1
M  V30 33 2 32 34
M  V30 34 1 32 35
M  V30 35 1 34 36
M  V30 36 2 35 37
M  V30 37 2 36 38
M  V30 38 1 36 39
M  V30 39 1 39 40
M  V30 40 1 39 41
M  V30 41 1 39 42
M  V30 42 1 9 12
M  V30 43 1 14 15
M  V30 44 1 20 22
M  V30 45 1 25 27
M  V30 46 1 37 38
M  V30 END BOND
M  V30 BEGIN COLLECTION
M  V30 MDLV30/STEABS ATOMS=(1 31)
M  V30 END COLLECTION
M  V30 END CTAB
M  END
>  <Molecule ChEMBL ID>
CHEMBL3735906

>  <Smiles>
Cc1c(C)n(Cc2ccc(-c3ccccc3C(=O)O)cc2)c2ccc(C(=O)N[C@@H](C)c3cccc(C(C)(C)C)c3)cc12

>  <IC50_nM>
5

>  <Assay Description>
Binding affinity to GST-tagged PPAR-gamma-LBD (unknown origin) after 2 hrs by Lantha screen assay using fluormone Pan-PPAR green probe

$$$$
CHEMBL3735924
Actelion Java MolfileCreator 2.0

  0  0  0  0  0  0              0 V3000
M  V30 BEGIN CTAB
M  V30 COUNTS 42 46 0 0 0
M  V30 BEGIN ATOM
M  V30 1 O 11.8592 -3.5669 0.0 0
M  V30 2 C 10.8811 -3.7748 0.0 0
M  V30 3 O 10.212 -3.0316 0.0 0
M  V30 4 C 10.5721 -4.7258 0.0 0
M  V30 5 C 9.5939 -4.9337 0.0 0
M  V30 6 C 11.2412 -5.469 0.0 0
M  V30 7 C 8.9248 -4.1906 0.0 0
M  V30 8 C 9.2849 -5.8848 0.0 0
M  V30 9 C 10.9322 -6.42 0.0 0
M  V30 10 C 9.2338 -3.2395 0.0 0
M  V30 11 C 7.9466 -4.3985 0.0 0
M  V30 12 C 9.954 -6.6279 0.0 0
M  V30 13 C 8.5647 -2.4964 0.0 0
M  V30 14 C 7.2775 -3.6554 0.0 0
M  V30 15 C 7.5865 -2.7043 0.0 0
M  V30 16 C 6.9174 -1.9612 0.0 0
M  V30 17 N 5.9392 -2.1691 0.0 0
M  V30 18 C 5.1961 -1.4999 0.0 0
M  V30 19 C 5.5325 -3.0826 0.0 0
M  V30 20 C 4.3301 -1.9999 0.0 0
M  V30 21 C 5.1961 -0.4999 0.0 0
M  V30 22 C 4.538 -2.9781 0.0 0
M  V30 23 C 6.0325 -3.9487 0.0 0
M  V30 24 C 3.4641 -1.5 0.0 0
M  V30 25 C 4.3301 0.0 0.0 0
M  V30 26 C 3.8689 -3.7212 0.0 0
M  V30 27 C 3.4641 -0.5 0.0 0
M  V30 28 C 2.598 0.0 0.0 0
M  V30 29 O 2.598 1.0 0.0 0
M  V30 30 N 1.732 -0.5 0.0 0
M  V30 31 C 0.866 0.0 0.0 0 CFG=2
M  V30 32 C 0.866 1.0 0.0 0
M  V30 33 C 0.0 -0.5 0.0 0
M  V30 34 C 1.732 1.4999 0.0 0
M  V30 35 C 0.0 1.4999 0.0 0
M  V30 36 C 1.732 2.5 0.0 0
M  V30 37 C 0.0 2.5 0.0 0
M  V30 38 C 0.866 3.0 0.0 0
M  V30 39 C 0.866 4.0 0.0 0
M  V30 40 C -0.1339 4.0 0.0 0
M  V30 41 C 0.866 5.0 0.0 0
M  V30 42 C 1.866 4.0 0.0 0
M  V30 END ATOM
M  V30 BEGIN BOND
M  V30 1 2 1 2
M  V30 2 1 2 3
M  V30 3 1 2 4
M  V30 4 2 4 5
M  V30 5 1 4 6
M  V30 6 1 5 7
M  V30 7 1 5 8
M  V30 8 2 6 9
M  V30 9 2 7 10
M  V30 10 1 7 11
M  V30 11 2 8 12
M  V30 12 1 10 13
M  V30 13 2 11 14
M  V30 14 2 13 15
M  V30 15 1 15 16
M  V30 16 1 16 17
M  V30 17 1 17 18
M  V30 18 1 17 19
M  V30 19 2 18 20
M  V30 20 1 18 21
M  V30 21 2 19 22
M  V30 22 1 19 23
M  V30 23 1 20 24
M  V30 24 2 21 25
M  V30 25 1 22 26
M  V30 26 2 24 27
M  V30 27 1 27 28
M  V30 28 2 28 29
M  V30 29 1 28 30
M  V30 30 1 30 31
M  V30 31 1 31 32
M  V30 32 1 31 33 CFG=1
M  V30 33 2 32 34
M  V30 34 1 32 35
M  V30 35 1 34 36
M  V30 36 2 35 37
M  V30 37 2 36 38
M  V30 38 1 38 39
M  V30 39 1 39 40
M  V30 40 1 39 41
M  V30 41 1 39 42
M  V30 42 1 9 12
M  V30 43 1 14 15
M  V30 44 1 20 22
M  V30 45 1 25 27
M  V30 46 1 37 38
M  V30 END BOND
M  V30 BEGIN COLLECTION
M  V30 MDLV30/STEABS ATOMS=(1 31)
M  V30 END COLLECTION
M  V30 END CTAB
M  END
>  <Molecule ChEMBL ID>
CHEMBL3735924

>  <Smiles>
Cc1c(C)n(Cc2ccc(-c3ccccc3C(=O)O)cc2)c2ccc(C(=O)N[C@@H](C)c3ccc(C(C)(C)C)cc3)cc12

>  <IC50_nM>
5

>  <Assay Description>
Binding affinity to GST-tagged PPAR-gamma-LBD (unknown origin) after 2 hrs by Lantha screen assay using fluormone Pan-PPAR green probe

$$$$
CHEMBL2037003
Actelion Java MolfileCreator 2.0

  0  0  0  0  0  0              0 V3000
M  V30 BEGIN CTAB
M  V30 COUNTS 35 37 0 0 0
M  V30 BEGIN ATOM
M  V30 1 O 7.7942 2.25 0.0 0
M  V30 2 C 9.0932 1.5 0.0 0
M  V30 3 C 9.0932 0.0 0.0 0
M  V30 4 C 10.3923 2.25 0.0 0
M  V30 5 C 7.7942 -0.75 0.0 0
M  V30 6 C 10.3923 -0.75 0.0 0
M  V30 7 C 11.6913 1.5 0.0 0
M  V30 8 C 10.3923 3.75 0.0 0
M  V30 9 O 6.4951 0.0 0.0 0
M  V30 10 C 7.7942 -2.25 0.0 0
M  V30 11 C 10.3923 -2.25 0.0 0
M  V30 12 C 12.9903 2.25 0.0 0
M  V30 13 C 11.6913 4.5 0.0 0
M  V30 14 C 5.1961 -0.75 0.0 0 CFG=1
M  V30 15 C 9.0932 -3.0 0.0 0
M  V30 16 C 11.6913 -3.0 0.0 0
M  V30 17 C 12.9903 3.75 0.0 0
M  V30 18 C 3.8971 0.0 0.0 0
M  V30 19 C 5.1961 -2.25 0.0 0
M  V30 20 C 12.9903 -2.25 0.0 0
M  V30 21 C 2.598 -0.75 0.0 0
M  V30 22 O 1.299 0.0 0.0 0
M  V30 23 C 0.0 -0.75 0.0 0
M  V30 24 C -1.299 0.0 0.0 0
M  V30 25 C 0.0 -2.25 0.0 0
M  V30 26 C -2.598 -0.75 0.0 0
M  V30 27 C -1.299 -3.0 0.0 0
M  V30 28 C -2.598 -2.25 0.0 0
M  V30 29 O -3.8971 -3.0 0.0 0
M  V30 30 C -3.8971 -4.5 0.0 0
M  V30 31 C -5.1961 -5.25 0.0 0
M  V30 32 C -3.1471 -5.799 0.0 0
M  V30 33 C -2.3971 -4.4999 0.0 0
M  V30 34 O -6.4951 -4.5 0.0 0
M  V30 35 O -5.1961 -6.75 0.0 0
M  V30 END ATOM
M  V30 BEGIN BOND
M  V30 1 2 1 2
M  V30 2 1 2 3
M  V30 3 1 2 4
M  V30 4 2 3 5
M  V30 5 1 3 6
M  V30 6 2 4 7
M  V30 7 1 4 8
M  V30 8 1 5 9
M  V30 9 1 5 10
M  V30 10 2 6 11
M  V30 11 1 7 12
M  V30 12 2 8 13
M  V30 13 1 9 14
M  V30 14 2 10 15
M  V30 15 1 11 16
M  V30 16 2 12 17
M  V30 17 1 14 18
M  V30 18 1 14 19 CFG=3
M  V30 19 1 16 20
M  V30 20 1 18 21
M  V30 21 1 21 22
M  V30 22 1 22 23
M  V30 23 2 23 24
M  V30 24 1 23 25
M  V30 25 1 24 26
M  V30 26 2 25 27
M  V30 27 2 26 28
M  V30 28 1 28 29
M  V30 29 1 29 30
M  V30 30 1 30 31
M  V30 31 1 30 32
M  V30 32 1 30 33
M  V30 33 2 31 34
M  V30 34 1 31 35
M  V30 35 1 11 15
M  V30 36 1 13 17
M  V30 37 1 27 28
M  V30 END BOND
M  V30 BEGIN COLLECTION
M  V30 MDLV30/STEABS ATOMS=(1 14)
M  V30 END COLLECTION
M  V30 END CTAB
M  END
>  <Molecule ChEMBL ID>
CHEMBL2037003

>  <Smiles>
CCc1ccc(O[C@H](C)CCOc2ccc(OC(C)(C)C(=O)O)cc2)c(C(=O)c2ccccc2)c1

>  <IC50_nM>
5.998

>  <Assay Description>
Agonist activity at PPARgamma

$$$$
CHEMBL377660
Actelion Java MolfileCreator 2.0

  0  0  0  0  0  0              0 V3000
M  V30 BEGIN CTAB
M  V30 COUNTS 33 35 0 0 0
M  V30 BEGIN ATOM
M  V30 1 O 8.6602 -4.5 0.0 0
M  V30 2 C 8.6602 -3.5 0.0 0
M  V30 3 O 9.5262 -3.0 0.0 0
M  V30 4 C 7.7942 -3.0 0.0 0
M  V30 5 C 7.7942 -2.0 0.0 0
M  V30 6 C 6.9282 -1.5 0.0 0
M  V30 7 C 6.9282 -0.5 0.0 0
M  V30 8 C 6.0621 -2.0 0.0 0
M  V30 9 C 6.0621 0.0 0.0 0
M  V30 10 C 7.7942 0.0 0.0 0
M  V30 11 C 5.1961 -1.5 0.0 0
M  V30 12 C 5.1961 -0.5 0.0 0
M  V30 13 O 4.3301 0.0 0.0 0
M  V30 14 C 3.4641 -0.5 0.0 0
M  V30 15 C 2.598 0.0 0.0 0
M  V30 16 C 1.732 -0.5 0.0 0 CFG=2
M  V30 17 O 0.866 0.0 0.0 0
M  V30 18 C 1.732 -1.5 0.0 0
M  V30 19 C 0.0 -0.5 0.0 0
M  V30 20 C -0.866 0.0 0.0 0
M  V30 21 C 0.0 -1.4999 0.0 0
M  V30 22 O -0.866 1.0 0.0 0
M  V30 23 C -1.732 -0.4999 0.0 0
M  V30 24 C -0.866 -1.9999 0.0 0
M  V30 25 C -1.732 1.5 0.0 0
M  V30 26 C -1.732 -1.4999 0.0 0
M  V30 27 C -1.732 2.5 0.0 0
M  V30 28 C -2.598 1.0 0.0 0
M  V30 29 C -2.598 -1.9999 0.0 0
M  V30 30 C -2.598 3.0 0.0 0
M  V30 31 C -3.4641 1.5 0.0 0
M  V30 32 C -2.598 -2.9999 0.0 0
M  V30 33 C -3.4641 2.5 0.0 0
M  V30 END ATOM
M  V30 BEGIN BOND
M  V30 1 2 1 2
M  V30 2 1 2 3
M  V30 3 1 2 4
M  V30 4 1 4 5
M  V30 5 1 5 6
M  V30 6 2 6 7
M  V30 7 1 6 8
M  V30 8 1 7 9
M  V30 9 1 7 10
M  V30 10 2 8 11
M  V30 11 2 9 12
M  V30 12 1 12 13
M  V30 13 1 13 14
M  V30 14 1 14 15
M  V30 15 1 15 16
M  V30 16 1 16 17
M  V30 17 1 16 18 CFG=1
M  V30 18 1 17 19
M  V30 19 2 19 20
M  V30 20 1 19 21
M  V30 21 1 20 22
M  V30 22 1 20 23
M  V30 23 2 21 24
M  V30 24 1 22 25
M  V30 25 2 23 26
M  V30 26 2 25 27
M  V30 27 1 25 28
M  V30 28 1 26 29
M  V30 29 1 27 30
M  V30 30 2 28 31
M  V30 31 1 29 32
M  V30 32 2 30 33
M  V30 33 1 11 12
M  V30 34 1 24 26
M  V30 35 1 31 33
M  V30 END BOND
M  V30 BEGIN COLLECTION
M  V30 MDLV30/STEABS ATOMS=(1 16)
M  V30 END COLLECTION
M  V30 END CTAB
M  END
>  <Molecule ChEMBL ID>
CHEMBL377660

>  <Smiles>
CCc1ccc(O[C@H](C)CCOc2ccc(CCC(=O)O)c(C)c2)c(Oc2ccccc2)c1

>  <IC50_nM>
5.998

>  <Assay Description>
Agonist activity at PPARgamma

$$$$
CHEMBL213315
Actelion Java MolfileCreator 2.0

  0  0  0  0  0  0              0 V3000
M  V30 BEGIN CTAB
M  V30 COUNTS 35 37 0 0 0
M  V30 BEGIN ATOM
M  V30 1 F 8.2942 -1.1339 0.0 0
M  V30 2 C 7.7942 -2.0 0.0 0
M  V30 3 F 8.6602 -2.5 0.0 0
M  V30 4 F 7.2942 -2.866 0.0 0
M  V30 5 C 6.9282 -1.5 0.0 0
M  V30 6 C 6.9282 -0.5 0.0 0
M  V30 7 C 6.0621 -2.0 0.0 0
M  V30 8 C 6.0621 0.0 0.0 0
M  V30 9 C 5.1961 -1.5 0.0 0
M  V30 10 O 6.0621 1.0 0.0 0
M  V30 11 C 5.1961 -0.5 0.0 0
M  V30 12 C 5.1961 1.5 0.0 0
M  V30 13 O 4.3301 0.0 0.0 0
M  V30 14 C 5.1961 2.5 0.0 0
M  V30 15 C 4.3301 1.0 0.0 0
M  V30 16 C 3.4641 -0.5 0.0 0 CFG=1
M  V30 17 C 4.3301 3.0 0.0 0
M  V30 18 C 3.4641 1.5 0.0 0
M  V30 19 C 2.598 0.0 0.0 0
M  V30 20 C 3.4641 -1.5 0.0 0
M  V30 21 C 3.4641 2.5 0.0 0
M  V30 22 C 1.732 -0.5 0.0 0
M  V30 23 O 0.866 0.0 0.0 0
M  V30 24 C 0.0 -0.5 0.0 0
M  V30 25 C -0.866 0.0 0.0 0
M  V30 26 C 0.0 -1.4999 0.0 0
M  V30 27 C -1.732 -0.4999 0.0 0
M  V30 28 C -0.866 -1.9999 0.0 0
M  V30 29 C -1.732 -1.4999 0.0 0
M  V30 30 C -2.598 0.0 0.0 0
M  V30 31 C -2.598 -1.9999 0.0 0
M  V30 32 C -2.598 -2.9999 0.0 0
M  V30 33 C -3.4641 -3.4999 0.0 0
M  V30 34 O -4.3301 -2.9999 0.0 0
M  V30 35 O -3.4641 -4.4999 0.0 0
M  V30 END ATOM
M  V30 BEGIN BOND
M  V30 1 1 1 2
M  V30 2 1 2 3
M  V30 3 1 2 4
M  V30 4 1 2 5
M  V30 5 2 5 6
M  V30 6 1 5 7
M  V30 7 1 6 8
M  V30 8 2 7 9
M  V30 9 1 8 10
M  V30 10 2 8 11
M  V30 11 1 10 12
M  V30 12 1 11 13
M  V30 13 2 12 14
M  V30 14 1 12 15
M  V30 15 1 13 16
M  V30 16 1 14 17
M  V30 17 2 15 18
M  V30 18 1 16 19
M  V30 19 1 16 20 CFG=3
M  V30 20 2 17 21
M  V30 21 1 19 22
M  V30 22 1 22 23
M  V30 23 1 23 24
M  V30 24 2 24 25
M  V30 25 1 24 26
M  V30 26 1 25 27
M  V30 27 2 26 28
M  V30 28 2 27 29
M  V30 29 1 27 30
M  V30 30 1 29 31
M  V30 31 1 31 32
M  V30 32 1 32 33
M  V30 33 2 33 34
M  V30 34 1 33 35
M  V30 35 1 9 11
M  V30 36 1 18 21
M  V30 37 1 28 29
M  V30 END BOND
M  V30 BEGIN COLLECTION
M  V30 MDLV30/STEABS ATOMS=(1 16)
M  V30 END COLLECTION
M  V30 END CTAB
M  END
>  <Molecule ChEMBL ID>
CHEMBL213315

>  <Smiles>
Cc1cc(OCC[C@@H](C)Oc2ccc(C(F)(F)F)cc2Oc2ccccc2)ccc1CCC(=O)O

>  <IC50_nM>
5.998

>  <Assay Description>
Agonist activity at PPARgamma

$$$$
CHEMBL214921
Actelion Java MolfileCreator 2.0

  0  0  0  0  0  0              0 V3000
M  V30 BEGIN CTAB
M  V30 COUNTS 36 38 0 0 0
M  V30 BEGIN ATOM
M  V30 1 F 13.1913 -4.5 0.0 0
M  V30 2 C 11.6913 -4.5 0.0 0
M  V30 3 F 11.6913 -6.0 0.0 0
M  V30 4 F 10.1913 -4.5 0.0 0
M  V30 5 O 11.6913 -3.0 0.0 0
M  V30 6 C 10.3923 -2.25 0.0 0
M  V30 7 C 10.3923 -0.75 0.0 0
M  V30 8 C 9.0932 -3.0 0.0 0
M  V30 9 C 9.0932 0.0 0.0 0
M  V30 10 C 7.7942 -2.25 0.0 0
M  V30 11 O 9.0932 1.5 0.0 0
M  V30 12 C 7.7942 -0.75 0.0 0
M  V30 13 C 7.7942 2.25 0.0 0
M  V30 14 O 6.4951 0.0 0.0 0
M  V30 15 C 7.7942 3.75 0.0 0
M  V30 16 C 6.4951 1.5 0.0 0
M  V30 17 C 5.1961 -0.75 0.0 0 CFG=1
M  V30 18 C 6.4951 4.5 0.0 0
M  V30 19 C 5.1961 2.25 0.0 0
M  V30 20 C 3.8971 0.0 0.0 0
M  V30 21 C 5.1961 -2.25 0.0 0
M  V30 22 C 5.1961 3.75 0.0 0
M  V30 23 C 2.598 -0.75 0.0 0
M  V30 24 O 1.299 0.0 0.0 0
M  V30 25 C 0.0 -0.75 0.0 0
M  V30 26 C -1.299 0.0 0.0 0
M  V30 27 C 0.0 -2.25 0.0 0
M  V30 28 C -2.598 -0.7499 0.0 0
M  V30 29 C -1.299 -2.9999 0.0 0
M  V30 30 C -2.598 -2.2499 0.0 0
M  V30 31 C -3.8971 0.0 0.0 0
M  V30 32 C -3.8971 -2.9999 0.0 0
M  V30 33 C -3.8971 -4.4999 0.0 0
M  V30 34 C -5.1961 -5.2499 0.0 0
M  V30 35 O -6.4951 -4.4999 0.0 0
M  V30 36 O -5.1961 -6.7499 0.0 0
M  V30 END ATOM
M  V30 BEGIN BOND
M  V30 1 1 1 2
M  V30 2 1 2 3
M  V30 3 1 2 4
M  V30 4 1 2 5
M  V30 5 1 5 6
M  V30 6 2 6 7
M  V30 7 1 6 8
M  V30 8 1 7 9
M  V30 9 2 8 10
M  V30 10 1 9 11
M  V30 11 2 9 12
M  V30 12 1 11 13
M  V30 13 1 12 14
M  V30 14 2 13 15
M  V30 15 1 13 16
M  V30 16 1 14 17
M  V30 17 1 15 18
M  V30 18 2 16 19
M  V30 19 1 17 20
M  V30 20 1 17 21 CFG=3
M  V30 21 2 18 22
M  V30 22 1 20 23
M  V30 23 1 23 24
M  V30 24 1 24 25
M  V30 25 2 25 26
M  V30 26 1 25 27
M  V30 27 1 26 28
M  V30 28 2 27 29
M  V30 29 2 28 30
M  V30 30 1 28 31
M  V30 31 1 30 32
M  V30 32 1 32 33
M  V30 33 1 33 34
M  V30 34 2 34 35
M  V30 35 1 34 36
M  V30 36 1 10 12
M  V30 37 1 19 22
M  V30 38 1 29 30
M  V30 END BOND
M  V30 BEGIN COLLECTION
M  V30 MDLV30/STEABS ATOMS=(1 17)
M  V30 END COLLECTION
M  V30 END CTAB
M  END
>  <Molecule ChEMBL ID>
CHEMBL214921

>  <Smiles>
Cc1cc(OCC[C@@H](C)Oc2ccc(OC(F)(F)F)cc2Oc2ccccc2)ccc1CCC(=O)O

>  <IC50_nM>
5.998

>  <Assay Description>
Agonist activity at PPARgamma

$$$$
CHEMBL3695789
Actelion Java MolfileCreator 2.0

  0  0  0  0  0  0              0 V3000
M  V30 BEGIN CTAB
M  V30 COUNTS 41 46 0 0 0
M  V30 BEGIN ATOM
M  V30 1 O 3.8971 0.0 0.0 0
M  V30 2 C 5.1961 -0.75 0.0 0
M  V30 3 N 6.4951 0.0 0.0 0
M  V30 4 C 5.1961 -2.25 0.0 0
M  V30 5 C 7.7942 -0.7499 0.0 0 CFG=2
M  V30 6 C 6.4951 -3.0 0.0 0
M  V30 7 C 3.8971 -2.9999 0.0 0
M  V30 8 C 9.0932 0.0 0.0 0
M  V30 9 C 7.7942 -2.2499 0.0 0
M  V30 10 C 6.4951 -4.5 0.0 0
M  V30 11 C 3.8971 -4.4999 0.0 0
M  V30 12 C 10.3923 -0.7499 0.0 0
M  V30 13 C 9.0932 1.5 0.0 0
M  V30 14 C 9.0932 -2.9999 0.0 0
M  V30 15 C 5.1961 -5.25 0.0 0
M  V30 16 C 7.6099 -5.5036 0.0 0
M  V30 17 C 11.6913 0.0 0.0 0
M  V30 18 C 10.3923 2.25 0.0 0
M  V30 19 N 5.508 -6.7172 0.0 0
M  V30 20 C 6.9998 -6.874 0.0 0
M  V30 21 C 9.0771 -5.1918 0.0 0
M  V30 22 C 11.6913 1.5 0.0 0
M  V30 23 C 4.5043 -7.8319 0.0 0
M  V30 24 C 7.7498 -8.173 0.0 0
M  V30 25 C 4.9678 -9.2585 0.0 0
M  V30 26 C 3.9641 -10.3732 0.0 0
M  V30 27 C 6.435 -9.5703 0.0 0
M  V30 28 C 4.4276 -11.7998 0.0 0
M  V30 29 C 6.8985 -10.9969 0.0 0
M  V30 30 C 5.8949 -12.1116 0.0 0
M  V30 31 C 6.3584 -13.5382 0.0 0
M  V30 32 C 5.3547 -14.6529 0.0 0
M  V30 33 C 7.8256 -13.8501 0.0 0
M  V30 34 C 3.8875 -14.3411 0.0 0
M  V30 35 C 5.8182 -16.0795 0.0 0
M  V30 36 C 8.2891 -15.2767 0.0 0
M  V30 37 N 3.2774 -12.9708 0.0 0
M  V30 38 N 2.7727 -15.3448 0.0 0
M  V30 39 C 7.2854 -16.3914 0.0 0
M  V30 40 N 1.7856 -13.1276 0.0 0
M  V30 41 N 1.4737 -14.5948 0.0 0
M  V30 END ATOM
M  V30 BEGIN BOND
M  V30 1 2 1 2
M  V30 2 1 2 3
M  V30 3 1 2 4
M  V30 4 1 5 3 CFG=3
M  V30 5 2 4 6
M  V30 6 1 4 7
M  V30 7 1 5 8
M  V30 8 1 5 9
M  V30 9 1 6 10
M  V30 10 2 7 11
M  V30 11 2 8 12
M  V30 12 1 8 13
M  V30 13 1 9 14
M  V30 14 2 10 15
M  V30 15 1 10 16
M  V30 16 1 12 17
M  V30 17 2 13 18
M  V30 18 1 15 19
M  V30 19 2 16 20
M  V30 20 1 16 21
M  V30 21 2 17 22
M  V30 22 1 19 23
M  V30 23 1 20 24
M  V30 24 1 23 25
M  V30 25 2 25 26
M  V30 26 1 25 27
M  V30 27 1 26 28
M  V30 28 2 27 29
M  V30 29 2 28 30
M  V30 30 1 30 31
M  V30 31 2 31 32
M  V30 32 1 31 33
M  V30 33 1 32 34
M  V30 34 1 32 35
M  V30 35 2 33 36
M  V30 36 2 34 37
M  V30 37 1 34 38
M  V30 38 2 35 39
M  V30 39 1 37 40
M  V30 40 1 38 41
M  V30 41 1 11 15
M  V30 42 1 18 22
M  V30 43 1 19 20
M  V30 44 1 29 30
M  V30 45 1 36 39
M  V30 46 2 40 41
M  V30 END BOND
M  V30 BEGIN COLLECTION
M  V30 MDLV30/STERAC1 ATOMS=(1 5)
M  V30 END COLLECTION
M  V30 END CTAB
M  END
>  <Molecule ChEMBL ID>
CHEMBL3695789

>  <Smiles>
CCC(NC(=O)c1ccc2c(c1)c(C)c(C)n2Cc1ccc(-c2ccccc2-c2nnn[nH]2)cc1)c1ccccc1

>  <IC50_nM>
6

>  <Assay Description>
Lanthascreen Competitive Binding Assay: The assay was performed according to manufacturer protocol. A mixture of nM GST-PPARG-LBD, 5 nM Tb-GST-antibody, 5 nM Fluormone Pan-PPAR Green, and serial dilutions of the experimental compound, beginning at 10 ׬M downwards, was added to wells of black 384-well low-volume plates (Greiner) to a total volume of 18 ׬L. All dilutions were made in TR-FRET assay buffer C. DMSO at 2% final concentration was used as a no-ligand control. Experiment was performed in triplicate, and incubated for 2 hours in the dark prior to assay read in Perkin Elmer ViewLux ultra HTS microplate reader. FRET signal was measured by excitation at 340 nm and emission at 520 nm for fluorescein and 490 nm for terbium. Fold change over DMSO was calculated using GraphPad Prism Software (La Jolla, Calif.) by calculating 520 nm/490 nm ratio. Graphs were plotted as fold change of FRET signal for compound treatment over DMSO-only control.

$$$$
CHEMBL3695855
Actelion Java MolfileCreator 2.0

  0  0  0  0  0  0              0 V3000
M  V30 BEGIN CTAB
M  V30 COUNTS 37 41 0 0 0
M  V30 BEGIN ATOM
M  V30 1 O 11.1837 5.7369 0.0 0
M  V30 2 C 10.8747 4.7859 0.0 0
M  V30 3 O 9.8965 4.578 0.0 0
M  V30 4 C 11.5438 4.0427 0.0 0
M  V30 5 C 11.2348 3.0917 0.0 0
M  V30 6 C 12.522 4.2506 0.0 0
M  V30 7 C 10.2566 2.8838 0.0 0
M  V30 8 C 11.9039 2.3485 0.0 0
M  V30 9 C 13.1911 3.5075 0.0 0
M  V30 10 C 9.5875 3.6269 0.0 0
M  V30 11 C 9.9476 1.9327 0.0 0
M  V30 12 C 12.8821 2.5564 0.0 0
M  V30 13 C 8.6094 3.419 0.0 0
M  V30 14 C 8.9695 1.7248 0.0 0
M  V30 15 C 8.3003 2.4679 0.0 0
M  V30 16 C 7.3222 2.26 0.0 0
M  V30 17 N 7.0132 1.309 0.0 0
M  V30 18 C 6.0621 0.9999 0.0 0
M  V30 19 C 7.601 0.5 0.0 0
M  V30 20 C 6.0621 0.0 0.0 0
M  V30 21 C 5.1961 1.4999 0.0 0
M  V30 22 C 7.0132 -0.309 0.0 0
M  V30 23 C 5.1961 -0.5 0.0 0
M  V30 24 C 4.3301 0.9999 0.0 0
M  V30 25 C 4.3301 0.0 0.0 0
M  V30 26 C 3.4641 -0.5 0.0 0
M  V30 27 O 3.4641 -1.5 0.0 0
M  V30 28 N 2.598 0.0 0.0 0
M  V30 29 C 1.732 -0.5 0.0 0 CFG=2
M  V30 30 C 1.732 -1.5 0.0 0
M  V30 31 C 0.866 0.0 0.0 0
M  V30 32 C 0.866 -1.9999 0.0 0
M  V30 33 C 2.598 -2.0 0.0 0
M  V30 34 C 0.0 -0.5 0.0 0
M  V30 35 C 0.866 -2.9999 0.0 0
M  V30 36 C 2.598 -3.0 0.0 0
M  V30 37 C 1.732 -3.5 0.0 0
M  V30 END ATOM
M  V30 BEGIN BOND
M  V30 1 2 1 2
M  V30 2 1 2 3
M  V30 3 1 2 4
M  V30 4 2 4 5
M  V30 5 1 4 6
M  V30 6 1 5 7
M  V30 7 1 5 8
M  V30 8 2 6 9
M  V30 9 2 7 10
M  V30 10 1 7 11
M  V30 11 2 8 12
M  V30 12 1 10 13
M  V30 13 2 11 14
M  V30 14 2 13 15
M  V30 15 1 15 16
M  V30 16 1 16 17
M  V30 17 1 17 18
M  V30 18 1 17 19
M  V30 19 2 18 20
M  V30 20 1 18 21
M  V30 21 2 19 22
M  V30 22 1 20 23
M  V30 23 2 21 24
M  V30 24 2 23 25
M  V30 25 1 25 26
M  V30 26 2 26 27
M  V30 27 1 26 28
M  V30 28 1 29 28 CFG=3
M  V30 29 1 29 30
M  V30 30 1 29 31
M  V30 31 2 30 32
M  V30 32 1 30 33
M  V30 33 1 31 34
M  V30 34 1 32 35
M  V30 35 2 33 36
M  V30 36 2 35 37
M  V30 37 1 9 12
M  V30 38 1 14 15
M  V30 39 1 20 22
M  V30 40 1 24 25
M  V30 41 1 36 37
M  V30 END BOND
M  V30 BEGIN COLLECTION
M  V30 MDLV30/STERAC1 ATOMS=(1 29)
M  V30 END COLLECTION
M  V30 END CTAB
M  END
>  <Molecule ChEMBL ID>
CHEMBL3695855

>  <Smiles>
CCC(NC(=O)c1ccc2c(ccn2Cc2ccc(-c3ccccc3C(=O)O)cc2)c1)c1ccccc1

>  <IC50_nM>
6

>  <Assay Description>
Lanthascreen Competitive Binding Assay: The assay was performed according to manufacturer protocol. A mixture of nM GST-PPARG-LBD, 5 nM Tb-GST-antibody, 5 nM Fluormone Pan-PPAR Green, and serial dilutions of the experimental compound, beginning at 10 ׬M downwards, was added to wells of black 384-well low-volume plates (Greiner) to a total volume of 18 ׬L. All dilutions were made in TR-FRET assay buffer C. DMSO at 2% final concentration was used as a no-ligand control. Experiment was performed in triplicate, and incubated for 2 hours in the dark prior to assay read in Perkin Elmer ViewLux ultra HTS microplate reader. FRET signal was measured by excitation at 340 nm and emission at 520 nm for fluorescein and 490 nm for terbium. Fold change over DMSO was calculated using GraphPad Prism Software (La Jolla, Calif.) by calculating 520 nm/490 nm ratio. Graphs were plotted as fold change of FRET signal for compound treatment over DMSO-only control.

$$$$
CHEMBL3695841
Actelion Java MolfileCreator 2.0

  0  0  0  0  0  0              0 V3000
M  V30 BEGIN CTAB
M  V30 COUNTS 38 42 0 0 0
M  V30 BEGIN ATOM
M  V30 1 O 11.8592 -3.5669 0.0 0
M  V30 2 C 10.8811 -3.7748 0.0 0
M  V30 3 O 10.212 -3.0316 0.0 0
M  V30 4 C 10.5721 -4.7258 0.0 0
M  V30 5 C 9.5939 -4.9337 0.0 0
M  V30 6 C 11.2412 -5.469 0.0 0
M  V30 7 C 8.9248 -4.1906 0.0 0
M  V30 8 C 9.2849 -5.8848 0.0 0
M  V30 9 C 10.9322 -6.42 0.0 0
M  V30 10 C 9.2338 -3.2395 0.0 0
M  V30 11 C 7.9466 -4.3985 0.0 0
M  V30 12 C 9.954 -6.6279 0.0 0
M  V30 13 C 8.5647 -2.4964 0.0 0
M  V30 14 C 7.2775 -3.6554 0.0 0
M  V30 15 C 7.5865 -2.7043 0.0 0
M  V30 16 C 6.9174 -1.9612 0.0 0
M  V30 17 N 5.9392 -2.1691 0.0 0
M  V30 18 C 5.1961 -1.4999 0.0 0
M  V30 19 C 5.5325 -3.0826 0.0 0
M  V30 20 C 4.3301 -1.9999 0.0 0
M  V30 21 C 5.1961 -0.4999 0.0 0
M  V30 22 C 4.538 -2.9781 0.0 0
M  V30 23 C 6.0325 -3.9487 0.0 0
M  V30 24 C 3.4641 -1.5 0.0 0
M  V30 25 C 4.3301 0.0 0.0 0
M  V30 26 C 3.8689 -3.7212 0.0 0
M  V30 27 C 3.4641 -0.5 0.0 0
M  V30 28 C 2.598 0.0 0.0 0
M  V30 29 O 2.598 1.0 0.0 0
M  V30 30 N 1.732 -0.5 0.0 0
M  V30 31 C 0.866 0.0 0.0 0
M  V30 32 C 0.0 -0.5 0.0 0
M  V30 33 C -0.866 0.0 0.0 0
M  V30 34 C 0.0 -1.4999 0.0 0
M  V30 35 C -1.732 -0.4999 0.0 0
M  V30 36 C -0.866 1.0 0.0 0
M  V30 37 C -0.866 -1.9999 0.0 0
M  V30 38 C -1.732 -1.4999 0.0 0
M  V30 END ATOM
M  V30 BEGIN BOND
M  V30 1 2 1 2
M  V30 2 1 2 3
M  V30 3 1 2 4
M  V30 4 2 4 5
M  V30 5 1 4 6
M  V30 6 1 5 7
M  V30 7 1 5 8
M  V30 8 2 6 9
M  V30 9 2 7 10
M  V30 10 1 7 11
M  V30 11 2 8 12
M  V30 12 1 10 13
M  V30 13 2 11 14
M  V30 14 2 13 15
M  V30 15 1 15 16
M  V30 16 1 16 17
M  V30 17 1 17 18
M  V30 18 1 17 19
M  V30 19 2 18 20
M  V30 20 1 18 21
M  V30 21 2 19 22
M  V30 22 1 19 23
M  V30 23 1 20 24
M  V30 24 2 21 25
M  V30 25 1 22 26
M  V30 26 2 24 27
M  V30 27 1 27 28
M  V30 28 2 28 29
M  V30 29 1 28 30
M  V30 30 1 30 31
M  V30 31 1 31 32
M  V30 32 2 32 33
M  V30 33 1 32 34
M  V30 34 1 33 35
M  V30 35 1 33 36
M  V30 36 2 34 37
M  V30 37 2 35 38
M  V30 38 1 9 12
M  V30 39 1 14 15
M  V30 40 1 20 22
M  V30 41 1 25 27
M  V30 42 1 37 38
M  V30 END BOND
M  V30 END CTAB
M  END
>  <Molecule ChEMBL ID>
CHEMBL3695841

>  <Smiles>
Cc1ccccc1CNC(=O)c1ccc2c(c1)c(C)c(C)n2Cc1ccc(-c2ccccc2C(=O)O)cc1

>  <IC50_nM>
6

>  <Assay Description>
Binding affinity to GST-tagged PPAR-gamma-LBD (unknown origin) after 2 hrs by Lantha screen assay using fluormone Pan-PPAR green probe

$$$$
CHEMBL215582
Actelion Java MolfileCreator 2.0

  0  0  0  0  0  0              0 V3000
M  V30 BEGIN CTAB
M  V30 COUNTS 35 37 0 0 0
M  V30 BEGIN ATOM
M  V30 1 O 7.7942 2.25 0.0 0
M  V30 2 C 9.0932 1.5 0.0 0
M  V30 3 C 9.0932 0.0 0.0 0
M  V30 4 C 10.3923 2.25 0.0 0
M  V30 5 C 7.7942 -0.75 0.0 0
M  V30 6 C 10.3923 -0.75 0.0 0
M  V30 7 C 11.6913 1.5 0.0 0
M  V30 8 C 10.3923 3.75 0.0 0
M  V30 9 O 6.4951 0.0 0.0 0
M  V30 10 C 7.7942 -2.25 0.0 0
M  V30 11 C 10.3923 -2.25 0.0 0
M  V30 12 C 12.9903 2.25 0.0 0
M  V30 13 C 11.6913 4.5 0.0 0
M  V30 14 C 5.1961 -0.75 0.0 0 CFG=2
M  V30 15 C 9.0932 -3.0 0.0 0
M  V30 16 C 11.6913 -3.0 0.0 0
M  V30 17 C 12.9903 3.75 0.0 0
M  V30 18 C 3.8971 0.0 0.0 0
M  V30 19 C 5.1961 -2.25 0.0 0
M  V30 20 C 12.9903 -2.25 0.0 0
M  V30 21 C 2.598 -0.75 0.0 0
M  V30 22 O 1.299 0.0 0.0 0
M  V30 23 C 0.0 -0.75 0.0 0
M  V30 24 C -1.299 0.0 0.0 0
M  V30 25 C 0.0 -2.25 0.0 0
M  V30 26 C -2.598 -0.75 0.0 0
M  V30 27 C -1.299 -3.0 0.0 0
M  V30 28 C -2.598 -2.25 0.0 0
M  V30 29 O -3.8971 -3.0 0.0 0
M  V30 30 C -3.8971 -4.5 0.0 0
M  V30 31 C -5.1961 -5.25 0.0 0
M  V30 32 C -3.1471 -5.799 0.0 0
M  V30 33 C -2.3971 -4.4999 0.0 0
M  V30 34 O -6.4951 -4.5 0.0 0
M  V30 35 O -5.1961 -6.75 0.0 0
M  V30 END ATOM
M  V30 BEGIN BOND
M  V30 1 2 1 2
M  V30 2 1 2 3
M  V30 3 1 2 4
M  V30 4 2 3 5
M  V30 5 1 3 6
M  V30 6 2 4 7
M  V30 7 1 4 8
M  V30 8 1 5 9
M  V30 9 1 5 10
M  V30 10 2 6 11
M  V30 11 1 7 12
M  V30 12 2 8 13
M  V30 13 1 9 14
M  V30 14 2 10 15
M  V30 15 1 11 16
M  V30 16 2 12 17
M  V30 17 1 14 18
M  V30 18 1 14 19 CFG=1
M  V30 19 1 16 20
M  V30 20 1 18 21
M  V30 21 1 21 22
M  V30 22 1 22 23
M  V30 23 2 23 24
M  V30 24 1 23 25
M  V30 25 1 24 26
M  V30 26 2 25 27
M  V30 27 2 26 28
M  V30 28 1 28 29
M  V30 29 1 29 30
M  V30 30 1 30 31
M  V30 31 1 30 32
M  V30 32 1 30 33
M  V30 33 2 31 34
M  V30 34 1 31 35
M  V30 35 1 11 15
M  V30 36 1 13 17
M  V30 37 1 27 28
M  V30 END BOND
M  V30 BEGIN COLLECTION
M  V30 MDLV30/STERAC1 ATOMS=(1 14)
M  V30 END COLLECTION
M  V30 END CTAB
M  END
>  <Molecule ChEMBL ID>
CHEMBL215582

>  <Smiles>
CCc1ccc(OC(C)CCOc2ccc(OC(C)(C)C(=O)O)cc2)c(C(=O)c2ccccc2)c1

>  <IC50_nM>
6

>  <Assay Description>
Displacement of [3H]2-methyl-2-(4-{3-[propyl-(5-pyridin-2-yl-thiophene-2-sulfonyl)-amino]-propyl}-phenoxy)-propionic acid from human PPARgamma by SPA

$$$$
CHEMBL3695841
Actelion Java MolfileCreator 2.0

  0  0  0  0  0  0              0 V3000
M  V30 BEGIN CTAB
M  V30 COUNTS 38 42 0 0 0
M  V30 BEGIN ATOM
M  V30 1 O 11.8592 -3.5669 0.0 0
M  V30 2 C 10.8811 -3.7748 0.0 0
M  V30 3 O 10.212 -3.0316 0.0 0
M  V30 4 C 10.5721 -4.7258 0.0 0
M  V30 5 C 9.5939 -4.9337 0.0 0
M  V30 6 C 11.2412 -5.469 0.0 0
M  V30 7 C 8.9248 -4.1906 0.0 0
M  V30 8 C 9.2849 -5.8848 0.0 0
M  V30 9 C 10.9322 -6.42 0.0 0
M  V30 10 C 9.2338 -3.2395 0.0 0
M  V30 11 C 7.9466 -4.3985 0.0 0
M  V30 12 C 9.954 -6.6279 0.0 0
M  V30 13 C 8.5647 -2.4964 0.0 0
M  V30 14 C 7.2775 -3.6554 0.0 0
M  V30 15 C 7.5865 -2.7043 0.0 0
M  V30 16 C 6.9174 -1.9612 0.0 0
M  V30 17 N 5.9392 -2.1691 0.0 0
M  V30 18 C 5.1961 -1.4999 0.0 0
M  V30 19 C 5.5325 -3.0826 0.0 0
M  V30 20 C 4.3301 -1.9999 0.0 0
M  V30 21 C 5.1961 -0.4999 0.0 0
M  V30 22 C 4.538 -2.9781 0.0 0
M  V30 23 C 6.0325 -3.9487 0.0 0
M  V30 24 C 3.4641 -1.5 0.0 0
M  V30 25 C 4.3301 0.0 0.0 0
M  V30 26 C 3.8689 -3.7212 0.0 0
M  V30 27 C 3.4641 -0.5 0.0 0
M  V30 28 C 2.598 0.0 0.0 0
M  V30 29 O 2.598 1.0 0.0 0
M  V30 30 N 1.732 -0.5 0.0 0
M  V30 31 C 0.866 0.0 0.0 0
M  V30 32 C 0.0 -0.5 0.0 0
M  V30 33 C -0.866 0.0 0.0 0
M  V30 34 C 0.0 -1.4999 0.0 0
M  V30 35 C -1.732 -0.4999 0.0 0
M  V30 36 C -0.866 1.0 0.0 0
M  V30 37 C -0.866 -1.9999 0.0 0
M  V30 38 C -1.732 -1.4999 0.0 0
M  V30 END ATOM
M  V30 BEGIN BOND
M  V30 1 2 1 2
M  V30 2 1 2 3
M  V30 3 1 2 4
M  V30 4 2 4 5
M  V30 5 1 4 6
M  V30 6 1 5 7
M  V30 7 1 5 8
M  V30 8 2 6 9
M  V30 9 2 7 10
M  V30 10 1 7 11
M  V30 11 2 8 12
M  V30 12 1 10 13
M  V30 13 2 11 14
M  V30 14 2 13 15
M  V30 15 1 15 16
M  V30 16 1 16 17
M  V30 17 1 17 18
M  V30 18 1 17 19
M  V30 19 2 18 20
M  V30 20 1 18 21
M  V30 21 2 19 22
M  V30 22 1 19 23
M  V30 23 1 20 24
M  V30 24 2 21 25
M  V30 25 1 22 26
M  V30 26 2 24 27
M  V30 27 1 27 28
M  V30 28 2 28 29
M  V30 29 1 28 30
M  V30 30 1 30 31
M  V30 31 1 31 32
M  V30 32 2 32 33
M  V30 33 1 32 34
M  V30 34 1 33 35
M  V30 35 1 33 36
M  V30 36 2 34 37
M  V30 37 2 35 38
M  V30 38 1 9 12
M  V30 39 1 14 15
M  V30 40 1 20 22
M  V30 41 1 25 27
M  V30 42 1 37 38
M  V30 END BOND
M  V30 END CTAB
M  END
>  <Molecule ChEMBL ID>
CHEMBL3695841

>  <Smiles>
Cc1ccccc1CNC(=O)c1ccc2c(c1)c(C)c(C)n2Cc1ccc(-c2ccccc2C(=O)O)cc1

>  <IC50_nM>
6

>  <Assay Description>
Lanthascreen Competitive Binding Assay: The assay was performed according to manufacturer protocol. A mixture of nM GST-PPARG-LBD, 5 nM Tb-GST-antibody, 5 nM Fluormone Pan-PPAR Green, and serial dilutions of the experimental compound, beginning at 10 ׬M downwards, was added to wells of black 384-well low-volume plates (Greiner) to a total volume of 18 ׬L. All dilutions were made in TR-FRET assay buffer C. DMSO at 2% final concentration was used as a no-ligand control. Experiment was performed in triplicate, and incubated for 2 hours in the dark prior to assay read in Perkin Elmer ViewLux ultra HTS microplate reader. FRET signal was measured by excitation at 340 nm and emission at 520 nm for fluorescein and 490 nm for terbium. Fold change over DMSO was calculated using GraphPad Prism Software (La Jolla, Calif.) by calculating 520 nm/490 nm ratio. Graphs were plotted as fold change of FRET signal for compound treatment over DMSO-only control.

$$$$
CHEMBL3699399
Actelion Java MolfileCreator 2.0

  0  0  0  0  0  0              0 V3000
M  V30 BEGIN CTAB
M  V30 COUNTS 40 44 0 0 0
M  V30 BEGIN ATOM
M  V30 1 O 11.8592 -3.5669 0.0 0
M  V30 2 C 10.8811 -3.7748 0.0 0
M  V30 3 O 10.212 -3.0316 0.0 0
M  V30 4 C 10.5721 -4.7258 0.0 0
M  V30 5 C 9.5939 -4.9337 0.0 0
M  V30 6 C 11.2412 -5.469 0.0 0
M  V30 7 C 8.9248 -4.1906 0.0 0
M  V30 8 C 9.2849 -5.8848 0.0 0
M  V30 9 C 10.9322 -6.42 0.0 0
M  V30 10 C 9.2338 -3.2395 0.0 0
M  V30 11 C 7.9466 -4.3985 0.0 0
M  V30 12 C 9.954 -6.6279 0.0 0
M  V30 13 C 8.5647 -2.4964 0.0 0
M  V30 14 C 7.2775 -3.6554 0.0 0
M  V30 15 C 7.5865 -2.7043 0.0 0
M  V30 16 C 6.9174 -1.9612 0.0 0
M  V30 17 N 5.9392 -2.1691 0.0 0
M  V30 18 C 5.1961 -1.4999 0.0 0
M  V30 19 C 5.5325 -3.0826 0.0 0
M  V30 20 C 4.3301 -1.9999 0.0 0
M  V30 21 C 5.1961 -0.4999 0.0 0
M  V30 22 C 4.538 -2.9781 0.0 0
M  V30 23 C 6.0325 -3.9487 0.0 0
M  V30 24 C 3.4641 -1.5 0.0 0
M  V30 25 C 4.3301 0.0 0.0 0
M  V30 26 C 3.8689 -3.7212 0.0 0
M  V30 27 C 3.4641 -0.5 0.0 0
M  V30 28 C 2.598 0.0 0.0 0
M  V30 29 O 2.598 1.0 0.0 0
M  V30 30 N 1.732 -0.5 0.0 0
M  V30 31 C 0.866 0.0 0.0 0 CFG=2
M  V30 32 C 0.866 1.0 0.0 0
M  V30 33 C 0.0 -0.5 0.0 0
M  V30 34 C 0.0 1.5 0.0 0
M  V30 35 C 1.732 1.5 0.0 0
M  V30 36 C 0.0 2.4999 0.0 0
M  V30 37 C -0.866 0.9999 0.0 0
M  V30 38 C 1.732 2.5 0.0 0
M  V30 39 C 0.866 2.9999 0.0 0
M  V30 40 C -1.732 1.4999 0.0 0
M  V30 END ATOM
M  V30 BEGIN BOND
M  V30 1 2 1 2
M  V30 2 1 2 3
M  V30 3 1 2 4
M  V30 4 2 4 5
M  V30 5 1 4 6
M  V30 6 1 5 7
M  V30 7 1 5 8
M  V30 8 2 6 9
M  V30 9 2 7 10
M  V30 10 1 7 11
M  V30 11 2 8 12
M  V30 12 1 10 13
M  V30 13 2 11 14
M  V30 14 2 13 15
M  V30 15 1 15 16
M  V30 16 1 16 17
M  V30 17 1 17 18
M  V30 18 1 17 19
M  V30 19 2 18 20
M  V30 20 1 18 21
M  V30 21 2 19 22
M  V30 22 1 19 23
M  V30 23 1 20 24
M  V30 24 2 21 25
M  V30 25 1 22 26
M  V30 26 2 24 27
M  V30 27 1 27 28
M  V30 28 2 28 29
M  V30 29 1 28 30
M  V30 30 1 30 31
M  V30 31 1 31 32
M  V30 32 1 31 33 CFG=1
M  V30 33 2 32 34
M  V30 34 1 32 35
M  V30 35 1 34 36
M  V30 36 1 34 37
M  V30 37 2 35 38
M  V30 38 2 36 39
M  V30 39 1 37 40
M  V30 40 1 9 12
M  V30 41 1 14 15
M  V30 42 1 20 22
M  V30 43 1 25 27
M  V30 44 1 38 39
M  V30 END BOND
M  V30 BEGIN COLLECTION
M  V30 MDLV30/STEABS ATOMS=(1 31)
M  V30 END COLLECTION
M  V30 END CTAB
M  END
>  <Molecule ChEMBL ID>
CHEMBL3699399

>  <Smiles>
CCc1ccccc1[C@H](C)NC(=O)c1ccc2c(c1)c(C)c(C)n2Cc1ccc(-c2ccccc2C(=O)O)cc1

>  <IC50_nM>
6

>  <Assay Description>
Lanthascreen Competitive Binding Assay: The assay was performed according to manufacturer protocol. A mixture of nM GST-PPARG-LBD, 5 nM Tb-GST-antibody, 5 nM Fluormone Pan-PPAR Green, and serial dilutions of the experimental compound, beginning at 10 ׬M downwards, was added to wells of black 384-well low-volume plates (Greiner) to a total volume of 18 ׬L. All dilutions were made in TR-FRET assay buffer C. DMSO at 2% final concentration was used as a no-ligand control. Experiment was performed in triplicate, and incubated for 2 hours in the dark prior to assay read in Perkin Elmer ViewLux ultra HTS microplate reader. FRET signal was measured by excitation at 340 nm and emission at 520 nm for fluorescein and 490 nm for terbium. Fold change over DMSO was calculated using GraphPad Prism Software (La Jolla, Calif.) by calculating 520 nm/490 nm ratio. Graphs were plotted as fold change of FRET signal for compound treatment over DMSO-only control.

$$$$
CHEMBL213315
Actelion Java MolfileCreator 2.0

  0  0  0  0  0  0              0 V3000
M  V30 BEGIN CTAB
M  V30 COUNTS 35 37 0 0 0
M  V30 BEGIN ATOM
M  V30 1 F 8.2942 -1.1339 0.0 0
M  V30 2 C 7.7942 -2.0 0.0 0
M  V30 3 F 8.6602 -2.5 0.0 0
M  V30 4 F 7.2942 -2.866 0.0 0
M  V30 5 C 6.9282 -1.5 0.0 0
M  V30 6 C 6.9282 -0.5 0.0 0
M  V30 7 C 6.0621 -2.0 0.0 0
M  V30 8 C 6.0621 0.0 0.0 0
M  V30 9 C 5.1961 -1.5 0.0 0
M  V30 10 O 6.0621 1.0 0.0 0
M  V30 11 C 5.1961 -0.5 0.0 0
M  V30 12 C 5.1961 1.5 0.0 0
M  V30 13 O 4.3301 0.0 0.0 0
M  V30 14 C 5.1961 2.5 0.0 0
M  V30 15 C 4.3301 1.0 0.0 0
M  V30 16 C 3.4641 -0.5 0.0 0 CFG=1
M  V30 17 C 4.3301 3.0 0.0 0
M  V30 18 C 3.4641 1.5 0.0 0
M  V30 19 C 2.598 0.0 0.0 0
M  V30 20 C 3.4641 -1.5 0.0 0
M  V30 21 C 3.4641 2.5 0.0 0
M  V30 22 C 1.732 -0.5 0.0 0
M  V30 23 O 0.866 0.0 0.0 0
M  V30 24 C 0.0 -0.5 0.0 0
M  V30 25 C -0.866 0.0 0.0 0
M  V30 26 C 0.0 -1.4999 0.0 0
M  V30 27 C -1.732 -0.4999 0.0 0
M  V30 28 C -0.866 -1.9999 0.0 0
M  V30 29 C -1.732 -1.4999 0.0 0
M  V30 30 C -2.598 0.0 0.0 0
M  V30 31 C -2.598 -1.9999 0.0 0
M  V30 32 C -2.598 -2.9999 0.0 0
M  V30 33 C -3.4641 -3.4999 0.0 0
M  V30 34 O -4.3301 -2.9999 0.0 0
M  V30 35 O -3.4641 -4.4999 0.0 0
M  V30 END ATOM
M  V30 BEGIN BOND
M  V30 1 1 1 2
M  V30 2 1 2 3
M  V30 3 1 2 4
M  V30 4 1 2 5
M  V30 5 2 5 6
M  V30 6 1 5 7
M  V30 7 1 6 8
M  V30 8 2 7 9
M  V30 9 1 8 10
M  V30 10 2 8 11
M  V30 11 1 10 12
M  V30 12 1 11 13
M  V30 13 2 12 14
M  V30 14 1 12 15
M  V30 15 1 13 16
M  V30 16 1 14 17
M  V30 17 2 15 18
M  V30 18 1 16 19
M  V30 19 1 16 20 CFG=3
M  V30 20 2 17 21
M  V30 21 1 19 22
M  V30 22 1 22 23
M  V30 23 1 23 24
M  V30 24 2 24 25
M  V30 25 1 24 26
M  V30 26 1 25 27
M  V30 27 2 26 28
M  V30 28 2 27 29
M  V30 29 1 27 30
M  V30 30 1 29 31
M  V30 31 1 31 32
M  V30 32 1 32 33
M  V30 33 2 33 34
M  V30 34 1 33 35
M  V30 35 1 9 11
M  V30 36 1 18 21
M  V30 37 1 28 29
M  V30 END BOND
M  V30 BEGIN COLLECTION
M  V30 MDLV30/STEABS ATOMS=(1 16)
M  V30 END COLLECTION
M  V30 END CTAB
M  END
>  <Molecule ChEMBL ID>
CHEMBL213315

>  <Smiles>
Cc1cc(OCC[C@@H](C)Oc2ccc(C(F)(F)F)cc2Oc2ccccc2)ccc1CCC(=O)O

>  <IC50_nM>
6

>  <Assay Description>
Displacement of [3H]2-methyl-2-(4-{3-[propyl-(5-pyridin-2-yl-thiophene-2-sulfonyl)-amino]-propyl}-phenoxy)-propionic acid from human PPARgamma by SPA

$$$$
CHEMBL3695806
Actelion Java MolfileCreator 2.0

  0  0  0  0  0  0              0 V3000
M  V30 BEGIN CTAB
M  V30 COUNTS 37 41 0 0 0
M  V30 BEGIN ATOM
M  V30 1 O 7.5801 5.8563 0.0 0
M  V30 2 C 8.2493 5.1132 0.0 0
M  V30 3 O 7.9402 4.1621 0.0 0
M  V30 4 C 9.2274 5.3211 0.0 0
M  V30 5 C 9.8965 4.578 0.0 0
M  V30 6 C 9.5364 6.2722 0.0 0
M  V30 7 C 9.5875 3.6269 0.0 0
M  V30 8 C 10.8747 4.7859 0.0 0
M  V30 9 C 10.5146 6.4801 0.0 0
M  V30 10 C 8.6094 3.419 0.0 0
M  V30 11 C 10.2566 2.8838 0.0 0
M  V30 12 C 11.1837 5.7369 0.0 0
M  V30 13 C 8.3003 2.4679 0.0 0
M  V30 14 C 9.9476 1.9327 0.0 0
M  V30 15 C 8.9695 1.7248 0.0 0
M  V30 16 C 7.3222 2.26 0.0 0
M  V30 17 N 7.0132 1.309 0.0 0
M  V30 18 C 6.0621 0.9999 0.0 0
M  V30 19 C 7.601 0.5 0.0 0
M  V30 20 C 6.0621 0.0 0.0 0
M  V30 21 C 5.1961 1.4999 0.0 0
M  V30 22 C 7.0132 -0.309 0.0 0
M  V30 23 C 5.1961 -0.5 0.0 0
M  V30 24 C 4.3301 0.9999 0.0 0
M  V30 25 C 4.3301 0.0 0.0 0
M  V30 26 C 3.4641 -0.5 0.0 0
M  V30 27 O 3.4641 -1.5 0.0 0
M  V30 28 N 2.598 0.0 0.0 0
M  V30 29 C 1.732 -0.5 0.0 0 CFG=2
M  V30 30 C 1.732 -1.5 0.0 0
M  V30 31 C 0.866 0.0 0.0 0
M  V30 32 C 0.866 -1.9999 0.0 0
M  V30 33 C 2.598 -2.0 0.0 0
M  V30 34 C 0.0 -0.5 0.0 0
M  V30 35 C 0.866 -2.9999 0.0 0
M  V30 36 C 2.598 -3.0 0.0 0
M  V30 37 C 1.732 -3.5 0.0 0
M  V30 END ATOM
M  V30 BEGIN BOND
M  V30 1 2 1 2
M  V30 2 1 2 3
M  V30 3 1 2 4
M  V30 4 2 4 5
M  V30 5 1 4 6
M  V30 6 1 5 7
M  V30 7 1 5 8
M  V30 8 2 6 9
M  V30 9 2 7 10
M  V30 10 1 7 11
M  V30 11 2 8 12
M  V30 12 1 10 13
M  V30 13 2 11 14
M  V30 14 2 13 15
M  V30 15 1 13 16
M  V30 16 1 16 17
M  V30 17 1 17 18
M  V30 18 1 17 19
M  V30 19 2 18 20
M  V30 20 1 18 21
M  V30 21 2 19 22
M  V30 22 1 20 23
M  V30 23 2 21 24
M  V30 24 2 23 25
M  V30 25 1 25 26
M  V30 26 2 26 27
M  V30 27 1 26 28
M  V30 28 1 29 28 CFG=3
M  V30 29 1 29 30
M  V30 30 1 29 31
M  V30 31 2 30 32
M  V30 32 1 30 33
M  V30 33 1 31 34
M  V30 34 1 32 35
M  V30 35 2 33 36
M  V30 36 2 35 37
M  V30 37 1 9 12
M  V30 38 1 14 15
M  V30 39 1 20 22
M  V30 40 1 24 25
M  V30 41 1 36 37
M  V30 END BOND
M  V30 BEGIN COLLECTION
M  V30 MDLV30/STERAC1 ATOMS=(1 29)
M  V30 END COLLECTION
M  V30 END CTAB
M  END
>  <Molecule ChEMBL ID>
CHEMBL3695806

>  <Smiles>
CCC(NC(=O)c1ccc2c(ccn2Cc2cccc(-c3ccccc3C(=O)O)c2)c1)c1ccccc1

>  <IC50_nM>
6

>  <Assay Description>
Lanthascreen Competitive Binding Assay: The assay was performed according to manufacturer protocol. A mixture of nM GST-PPARG-LBD, 5 nM Tb-GST-antibody, 5 nM Fluormone Pan-PPAR Green, and serial dilutions of the experimental compound, beginning at 10 ׬M downwards, was added to wells of black 384-well low-volume plates (Greiner) to a total volume of 18 ׬L. All dilutions were made in TR-FRET assay buffer C. DMSO at 2% final concentration was used as a no-ligand control. Experiment was performed in triplicate, and incubated for 2 hours in the dark prior to assay read in Perkin Elmer ViewLux ultra HTS microplate reader. FRET signal was measured by excitation at 340 nm and emission at 520 nm for fluorescein and 490 nm for terbium. Fold change over DMSO was calculated using GraphPad Prism Software (La Jolla, Calif.) by calculating 520 nm/490 nm ratio. Graphs were plotted as fold change of FRET signal for compound treatment over DMSO-only control.

$$$$
CHEMBL3695842
Actelion Java MolfileCreator 2.0

  0  0  0  0  0  0              0 V3000
M  V30 BEGIN CTAB
M  V30 COUNTS 38 42 0 0 0
M  V30 BEGIN ATOM
M  V30 1 Cl 4.3301 0.9999 0.0 0
M  V30 2 C 4.3301 0.0 0.0 0
M  V30 3 C 3.4641 -0.5 0.0 0
M  V30 4 C 5.1961 -0.5 0.0 0
M  V30 5 C 3.4641 -1.5 0.0 0
M  V30 6 C 2.598 0.0 0.0 0
M  V30 7 C 5.1961 -1.5 0.0 0
M  V30 8 C 4.3301 -2.0 0.0 0
M  V30 9 N 1.732 -0.5 0.0 0
M  V30 10 C 0.866 0.0 0.0 0
M  V30 11 O 0.866 1.0 0.0 0
M  V30 12 C 0.0 -0.5 0.0 0
M  V30 13 C 0.0 -1.4999 0.0 0
M  V30 14 C -0.866 0.0 0.0 0
M  V30 15 C -0.866 -1.9999 0.0 0
M  V30 16 C -1.732 -0.4999 0.0 0
M  V30 17 C -1.732 -1.4999 0.0 0
M  V30 18 C -1.0739 -2.9781 0.0 0
M  V30 19 N -2.4751 -2.1691 0.0 0
M  V30 20 C -2.0684 -3.0826 0.0 0
M  V30 21 C -0.4048 -3.7212 0.0 0
M  V30 22 C -3.4533 -1.9612 0.0 0
M  V30 23 C -2.5684 -3.9487 0.0 0
M  V30 24 C -4.1224 -2.7043 0.0 0
M  V30 25 C -5.1006 -2.4964 0.0 0
M  V30 26 C -3.8134 -3.6554 0.0 0
M  V30 27 C -5.7697 -3.2395 0.0 0
M  V30 28 C -4.4825 -4.3985 0.0 0
M  V30 29 C -5.4607 -4.1906 0.0 0
M  V30 30 C -6.1298 -4.9337 0.0 0
M  V30 31 C -7.108 -4.7258 0.0 0
M  V30 32 C -5.8208 -5.8848 0.0 0
M  V30 33 C -7.417 -3.7748 0.0 0
M  V30 34 C -7.7771 -5.469 0.0 0
M  V30 35 C -6.4899 -6.6279 0.0 0
M  V30 36 O -6.7478 -3.0316 0.0 0
M  V30 37 O -8.3951 -3.5669 0.0 0
M  V30 38 C -7.4681 -6.42 0.0 0
M  V30 END ATOM
M  V30 BEGIN BOND
M  V30 1 1 1 2
M  V30 2 2 2 3
M  V30 3 1 2 4
M  V30 4 1 3 5
M  V30 5 1 3 6
M  V30 6 2 4 7
M  V30 7 2 5 8
M  V30 8 1 6 9
M  V30 9 1 9 10
M  V30 10 2 10 11
M  V30 11 1 10 12
M  V30 12 2 12 13
M  V30 13 1 12 14
M  V30 14 1 13 15
M  V30 15 2 14 16
M  V30 16 2 15 17
M  V30 17 1 15 18
M  V30 18 1 17 19
M  V30 19 2 18 20
M  V30 20 1 18 21
M  V30 21 1 19 22
M  V30 22 1 20 23
M  V30 23 1 22 24
M  V30 24 2 24 25
M  V30 25 1 24 26
M  V30 26 1 25 27
M  V30 27 2 26 28
M  V30 28 2 27 29
M  V30 29 1 29 30
M  V30 30 2 30 31
M  V30 31 1 30 32
M  V30 32 1 31 33
M  V30 33 1 31 34
M  V30 34 2 32 35
M  V30 35 2 33 36
M  V30 36 1 33 37
M  V30 37 2 34 38
M  V30 38 1 7 8
M  V30 39 1 16 17
M  V30 40 1 19 20
M  V30 41 1 28 29
M  V30 42 1 35 38
M  V30 END BOND
M  V30 END CTAB
M  END
>  <Molecule ChEMBL ID>
CHEMBL3695842

>  <Smiles>
Cc1c(C)n(Cc2ccc(-c3ccccc3C(=O)O)cc2)c2ccc(C(=O)NCc3ccccc3Cl)cc12

>  <IC50_nM>
6

>  <Assay Description>
Lanthascreen Competitive Binding Assay: The assay was performed according to manufacturer protocol. A mixture of nM GST-PPARG-LBD, 5 nM Tb-GST-antibody, 5 nM Fluormone Pan-PPAR Green, and serial dilutions of the experimental compound, beginning at 10 ׬M downwards, was added to wells of black 384-well low-volume plates (Greiner) to a total volume of 18 ׬L. All dilutions were made in TR-FRET assay buffer C. DMSO at 2% final concentration was used as a no-ligand control. Experiment was performed in triplicate, and incubated for 2 hours in the dark prior to assay read in Perkin Elmer ViewLux ultra HTS microplate reader. FRET signal was measured by excitation at 340 nm and emission at 520 nm for fluorescein and 490 nm for terbium. Fold change over DMSO was calculated using GraphPad Prism Software (La Jolla, Calif.) by calculating 520 nm/490 nm ratio. Graphs were plotted as fold change of FRET signal for compound treatment over DMSO-only control.

$$$$
CHEMBL214921
Actelion Java MolfileCreator 2.0

  0  0  0  0  0  0              0 V3000
M  V30 BEGIN CTAB
M  V30 COUNTS 36 38 0 0 0
M  V30 BEGIN ATOM
M  V30 1 F 13.1913 -4.5 0.0 0
M  V30 2 C 11.6913 -4.5 0.0 0
M  V30 3 F 11.6913 -6.0 0.0 0
M  V30 4 F 10.1913 -4.5 0.0 0
M  V30 5 O 11.6913 -3.0 0.0 0
M  V30 6 C 10.3923 -2.25 0.0 0
M  V30 7 C 10.3923 -0.75 0.0 0
M  V30 8 C 9.0932 -3.0 0.0 0
M  V30 9 C 9.0932 0.0 0.0 0
M  V30 10 C 7.7942 -2.25 0.0 0
M  V30 11 O 9.0932 1.5 0.0 0
M  V30 12 C 7.7942 -0.75 0.0 0
M  V30 13 C 7.7942 2.25 0.0 0
M  V30 14 O 6.4951 0.0 0.0 0
M  V30 15 C 7.7942 3.75 0.0 0
M  V30 16 C 6.4951 1.5 0.0 0
M  V30 17 C 5.1961 -0.75 0.0 0 CFG=1
M  V30 18 C 6.4951 4.5 0.0 0
M  V30 19 C 5.1961 2.25 0.0 0
M  V30 20 C 3.8971 0.0 0.0 0
M  V30 21 C 5.1961 -2.25 0.0 0
M  V30 22 C 5.1961 3.75 0.0 0
M  V30 23 C 2.598 -0.75 0.0 0
M  V30 24 O 1.299 0.0 0.0 0
M  V30 25 C 0.0 -0.75 0.0 0
M  V30 26 C -1.299 0.0 0.0 0
M  V30 27 C 0.0 -2.25 0.0 0
M  V30 28 C -2.598 -0.7499 0.0 0
M  V30 29 C -1.299 -2.9999 0.0 0
M  V30 30 C -2.598 -2.2499 0.0 0
M  V30 31 C -3.8971 0.0 0.0 0
M  V30 32 C -3.8971 -2.9999 0.0 0
M  V30 33 C -3.8971 -4.4999 0.0 0
M  V30 34 C -5.1961 -5.2499 0.0 0
M  V30 35 O -6.4951 -4.4999 0.0 0
M  V30 36 O -5.1961 -6.7499 0.0 0
M  V30 END ATOM
M  V30 BEGIN BOND
M  V30 1 1 1 2
M  V30 2 1 2 3
M  V30 3 1 2 4
M  V30 4 1 2 5
M  V30 5 1 5 6
M  V30 6 2 6 7
M  V30 7 1 6 8
M  V30 8 1 7 9
M  V30 9 2 8 10
M  V30 10 1 9 11
M  V30 11 2 9 12
M  V30 12 1 11 13
M  V30 13 1 12 14
M  V30 14 2 13 15
M  V30 15 1 13 16
M  V30 16 1 14 17
M  V30 17 1 15 18
M  V30 18 2 16 19
M  V30 19 1 17 20
M  V30 20 1 17 21 CFG=3
M  V30 21 2 18 22
M  V30 22 1 20 23
M  V30 23 1 23 24
M  V30 24 1 24 25
M  V30 25 2 25 26
M  V30 26 1 25 27
M  V30 27 1 26 28
M  V30 28 2 27 29
M  V30 29 2 28 30
M  V30 30 1 28 31
M  V30 31 1 30 32
M  V30 32 1 32 33
M  V30 33 1 33 34
M  V30 34 2 34 35
M  V30 35 1 34 36
M  V30 36 1 10 12
M  V30 37 1 19 22
M  V30 38 1 29 30
M  V30 END BOND
M  V30 BEGIN COLLECTION
M  V30 MDLV30/STEABS ATOMS=(1 17)
M  V30 END COLLECTION
M  V30 END CTAB
M  END
>  <Molecule ChEMBL ID>
CHEMBL214921

>  <Smiles>
Cc1cc(OCC[C@@H](C)Oc2ccc(OC(F)(F)F)cc2Oc2ccccc2)ccc1CCC(=O)O

>  <IC50_nM>
6

>  <Assay Description>
Displacement of [3H]2-methyl-2-(4-{3-[propyl-(5-pyridin-2-yl-thiophene-2-sulfonyl)-amino]-propyl}-phenoxy)-propionic acid from human PPARgamma by SPA

$$$$
CHEMBL363805
Actelion Java MolfileCreator 2.0

  0  0  0  0  0  0              0 V3000
M  V30 BEGIN CTAB
M  V30 COUNTS 39 43 0 0 0
M  V30 BEGIN ATOM
M  V30 1 Cl 9.0932 -3.0 0.0 0
M  V30 2 C 7.7942 -2.2499 0.0 0
M  V30 3 C 7.7942 -0.75 0.0 0
M  V30 4 C 6.4951 -2.9999 0.0 0
M  V30 5 O 9.0932 0.0 0.0 0
M  V30 6 C 6.4951 0.0 0.0 0
M  V30 7 C 5.1961 -2.25 0.0 0
M  V30 8 C 9.0932 1.5 0.0 0
M  V30 9 C 5.1961 -0.75 0.0 0
M  V30 10 C 10.3067 2.3816 0.0 0
M  V30 11 C 7.8797 2.3816 0.0 0
M  V30 12 O 3.8971 0.0 0.0 0
M  V30 13 C 9.8432 3.8082 0.0 0
M  V30 14 C 11.774 2.0698 0.0 0
M  V30 15 N 8.3432 3.8082 0.0 0
M  V30 16 C 6.4531 1.9181 0.0 0
M  V30 17 C 2.598 -0.75 0.0 0 CFG=2
M  V30 18 C 10.8469 4.9229 0.0 0
M  V30 19 C 12.7777 3.1845 0.0 0
M  V30 20 C 7.4615 5.0217 0.0 0
M  V30 21 C 1.299 0.0 0.0 0
M  V30 22 C 2.598 -2.25 0.0 0
M  V30 23 C 12.3141 4.6111 0.0 0
M  V30 24 O 14.2449 2.8726 0.0 0
M  V30 25 N 7.9251 6.4483 0.0 0
M  V30 26 C 5.9615 5.0217 0.0 0
M  V30 27 O 1.299 1.5 0.0 0
M  V30 28 O 0.0 -0.75 0.0 0
M  V30 29 C 15.2486 3.9873 0.0 0
M  V30 30 O 6.7115 7.33 0.0 0
M  V30 31 C 5.498 6.4483 0.0 0
M  V30 32 C 4.9578 3.907 0.0 0
M  V30 33 F 14.1339 4.991 0.0 0
M  V30 34 F 16.2523 5.102 0.0 0
M  V30 35 F 16.3633 2.9836 0.0 0
M  V30 36 C 4.0308 6.7602 0.0 0
M  V30 37 C 3.4906 4.2189 0.0 0
M  V30 38 C 3.0271 5.6455 0.0 0
M  V30 39 Cl 1.5599 5.9573 0.0 0
M  V30 END ATOM
M  V30 BEGIN BOND
M  V30 1 1 1 2
M  V30 2 2 2 3
M  V30 3 1 2 4
M  V30 4 1 3 5
M  V30 5 1 3 6
M  V30 6 2 4 7
M  V30 7 1 5 8
M  V30 8 2 6 9
M  V30 9 1 8 10
M  V30 10 2 8 11
M  V30 11 1 9 12
M  V30 12 2 10 13
M  V30 13 1 10 14
M  V30 14 1 11 15
M  V30 15 1 11 16
M  V30 16 1 12 17
M  V30 17 1 13 18
M  V30 18 2 14 19
M  V30 19 1 15 20
M  V30 20 1 17 21
M  V30 21 1 17 22 CFG=1
M  V30 22 2 18 23
M  V30 23 1 19 24
M  V30 24 2 20 25
M  V30 25 1 20 26
M  V30 26 2 21 27
M  V30 27 1 21 28
M  V30 28 1 24 29
M  V30 29 1 25 30
M  V30 30 2 26 31
M  V30 31 1 26 32
M  V30 32 1 29 33
M  V30 33 1 29 34
M  V30 34 1 29 35
M  V30 35 1 31 36
M  V30 36 2 32 37
M  V30 37 2 36 38
M  V30 38 1 38 39
M  V30 39 1 7 9
M  V30 40 1 13 15
M  V30 41 1 19 23
M  V30 42 1 30 31
M  V30 43 1 37 38
M  V30 END BOND
M  V30 BEGIN COLLECTION
M  V30 MDLV30/STEABS ATOMS=(1 17)
M  V30 END COLLECTION
M  V30 END CTAB
M  END
>  <Molecule ChEMBL ID>
CHEMBL363805

>  <Smiles>
Cc1c(Oc2cc(O[C@@H](C)C(=O)O)ccc2Cl)c2cc(OC(F)(F)F)ccc2n1-c1noc2cc(Cl)ccc12

>  <IC50_nM>
6

>  <Assay Description>
Displacement of [3H2]nTZD3 from human recombinant GST-fused PPARgamma expressed in Escherichia coli by scintillation proximity assay

$$$$
CHEMBL3699399
Actelion Java MolfileCreator 2.0

  0  0  0  0  0  0              0 V3000
M  V30 BEGIN CTAB
M  V30 COUNTS 40 44 0 0 0
M  V30 BEGIN ATOM
M  V30 1 O 11.8592 -3.5669 0.0 0
M  V30 2 C 10.8811 -3.7748 0.0 0
M  V30 3 O 10.212 -3.0316 0.0 0
M  V30 4 C 10.5721 -4.7258 0.0 0
M  V30 5 C 9.5939 -4.9337 0.0 0
M  V30 6 C 11.2412 -5.469 0.0 0
M  V30 7 C 8.9248 -4.1906 0.0 0
M  V30 8 C 9.2849 -5.8848 0.0 0
M  V30 9 C 10.9322 -6.42 0.0 0
M  V30 10 C 9.2338 -3.2395 0.0 0
M  V30 11 C 7.9466 -4.3985 0.0 0
M  V30 12 C 9.954 -6.6279 0.0 0
M  V30 13 C 8.5647 -2.4964 0.0 0
M  V30 14 C 7.2775 -3.6554 0.0 0
M  V30 15 C 7.5865 -2.7043 0.0 0
M  V30 16 C 6.9174 -1.9612 0.0 0
M  V30 17 N 5.9392 -2.1691 0.0 0
M  V30 18 C 5.1961 -1.4999 0.0 0
M  V30 19 C 5.5325 -3.0826 0.0 0
M  V30 20 C 4.3301 -1.9999 0.0 0
M  V30 21 C 5.1961 -0.4999 0.0 0
M  V30 22 C 4.538 -2.9781 0.0 0
M  V30 23 C 6.0325 -3.9487 0.0 0
M  V30 24 C 3.4641 -1.5 0.0 0
M  V30 25 C 4.3301 0.0 0.0 0
M  V30 26 C 3.8689 -3.7212 0.0 0
M  V30 27 C 3.4641 -0.5 0.0 0
M  V30 28 C 2.598 0.0 0.0 0
M  V30 29 O 2.598 1.0 0.0 0
M  V30 30 N 1.732 -0.5 0.0 0
M  V30 31 C 0.866 0.0 0.0 0 CFG=2
M  V30 32 C 0.866 1.0 0.0 0
M  V30 33 C 0.0 -0.5 0.0 0
M  V30 34 C 0.0 1.5 0.0 0
M  V30 35 C 1.732 1.5 0.0 0
M  V30 36 C 0.0 2.4999 0.0 0
M  V30 37 C -0.866 0.9999 0.0 0
M  V30 38 C 1.732 2.5 0.0 0
M  V30 39 C 0.866 2.9999 0.0 0
M  V30 40 C -1.732 1.4999 0.0 0
M  V30 END ATOM
M  V30 BEGIN BOND
M  V30 1 2 1 2
M  V30 2 1 2 3
M  V30 3 1 2 4
M  V30 4 2 4 5
M  V30 5 1 4 6
M  V30 6 1 5 7
M  V30 7 1 5 8
M  V30 8 2 6 9
M  V30 9 2 7 10
M  V30 10 1 7 11
M  V30 11 2 8 12
M  V30 12 1 10 13
M  V30 13 2 11 14
M  V30 14 2 13 15
M  V30 15 1 15 16
M  V30 16 1 16 17
M  V30 17 1 17 18
M  V30 18 1 17 19
M  V30 19 2 18 20
M  V30 20 1 18 21
M  V30 21 2 19 22
M  V30 22 1 19 23
M  V30 23 1 20 24
M  V30 24 2 21 25
M  V30 25 1 22 26
M  V30 26 2 24 27
M  V30 27 1 27 28
M  V30 28 2 28 29
M  V30 29 1 28 30
M  V30 30 1 30 31
M  V30 31 1 31 32
M  V30 32 1 31 33 CFG=1
M  V30 33 2 32 34
M  V30 34 1 32 35
M  V30 35 1 34 36
M  V30 36 1 34 37
M  V30 37 2 35 38
M  V30 38 2 36 39
M  V30 39 1 37 40
M  V30 40 1 9 12
M  V30 41 1 14 15
M  V30 42 1 20 22
M  V30 43 1 25 27
M  V30 44 1 38 39
M  V30 END BOND
M  V30 BEGIN COLLECTION
M  V30 MDLV30/STEABS ATOMS=(1 31)
M  V30 END COLLECTION
M  V30 END CTAB
M  END
>  <Molecule ChEMBL ID>
CHEMBL3699399

>  <Smiles>
CCc1ccccc1[C@H](C)NC(=O)c1ccc2c(c1)c(C)c(C)n2Cc1ccc(-c2ccccc2C(=O)O)cc1

>  <IC50_nM>
6

>  <Assay Description>
Binding affinity to GST-tagged PPAR-gamma-LBD (unknown origin) after 2 hrs by Lantha screen assay using fluormone Pan-PPAR green probe

$$$$
CHEMBL377660
Actelion Java MolfileCreator 2.0

  0  0  0  0  0  0              0 V3000
M  V30 BEGIN CTAB
M  V30 COUNTS 33 35 0 0 0
M  V30 BEGIN ATOM
M  V30 1 O 8.6602 -4.5 0.0 0
M  V30 2 C 8.6602 -3.5 0.0 0
M  V30 3 O 9.5262 -3.0 0.0 0
M  V30 4 C 7.7942 -3.0 0.0 0
M  V30 5 C 7.7942 -2.0 0.0 0
M  V30 6 C 6.9282 -1.5 0.0 0
M  V30 7 C 6.9282 -0.5 0.0 0
M  V30 8 C 6.0621 -2.0 0.0 0
M  V30 9 C 6.0621 0.0 0.0 0
M  V30 10 C 7.7942 0.0 0.0 0
M  V30 11 C 5.1961 -1.5 0.0 0
M  V30 12 C 5.1961 -0.5 0.0 0
M  V30 13 O 4.3301 0.0 0.0 0
M  V30 14 C 3.4641 -0.5 0.0 0
M  V30 15 C 2.598 0.0 0.0 0
M  V30 16 C 1.732 -0.5 0.0 0 CFG=2
M  V30 17 O 0.866 0.0 0.0 0
M  V30 18 C 1.732 -1.5 0.0 0
M  V30 19 C 0.0 -0.5 0.0 0
M  V30 20 C -0.866 0.0 0.0 0
M  V30 21 C 0.0 -1.4999 0.0 0
M  V30 22 O -0.866 1.0 0.0 0
M  V30 23 C -1.732 -0.4999 0.0 0
M  V30 24 C -0.866 -1.9999 0.0 0
M  V30 25 C -1.732 1.5 0.0 0
M  V30 26 C -1.732 -1.4999 0.0 0
M  V30 27 C -1.732 2.5 0.0 0
M  V30 28 C -2.598 1.0 0.0 0
M  V30 29 C -2.598 -1.9999 0.0 0
M  V30 30 C -2.598 3.0 0.0 0
M  V30 31 C -3.4641 1.5 0.0 0
M  V30 32 C -2.598 -2.9999 0.0 0
M  V30 33 C -3.4641 2.5 0.0 0
M  V30 END ATOM
M  V30 BEGIN BOND
M  V30 1 2 1 2
M  V30 2 1 2 3
M  V30 3 1 2 4
M  V30 4 1 4 5
M  V30 5 1 5 6
M  V30 6 2 6 7
M  V30 7 1 6 8
M  V30 8 1 7 9
M  V30 9 1 7 10
M  V30 10 2 8 11
M  V30 11 2 9 12
M  V30 12 1 12 13
M  V30 13 1 13 14
M  V30 14 1 14 15
M  V30 15 1 15 16
M  V30 16 1 16 17
M  V30 17 1 16 18 CFG=1
M  V30 18 1 17 19
M  V30 19 2 19 20
M  V30 20 1 19 21
M  V30 21 1 20 22
M  V30 22 1 20 23
M  V30 23 2 21 24
M  V30 24 1 22 25
M  V30 25 2 23 26
M  V30 26 2 25 27
M  V30 27 1 25 28
M  V30 28 1 26 29
M  V30 29 1 27 30
M  V30 30 2 28 31
M  V30 31 1 29 32
M  V30 32 2 30 33
M  V30 33 1 11 12
M  V30 34 1 24 26
M  V30 35 1 31 33
M  V30 END BOND
M  V30 BEGIN COLLECTION
M  V30 MDLV30/STEABS ATOMS=(1 16)
M  V30 END COLLECTION
M  V30 END CTAB
M  END
>  <Molecule ChEMBL ID>
CHEMBL377660

>  <Smiles>
CCc1ccc(O[C@H](C)CCOc2ccc(CCC(=O)O)c(C)c2)c(Oc2ccccc2)c1

>  <IC50_nM>
6

>  <Assay Description>
Displacement of [3H]2-methyl-2-(4-{3-[propyl-(5-pyridin-2-yl-thiophene-2-sulfonyl)-amino]-propyl}-phenoxy)-propionic acid from human PPARgamma by SPA

$$$$
CHEMBL3695872
Actelion Java MolfileCreator 2.0

  0  0  0  0  0  0              0 V3000
M  V30 BEGIN CTAB
M  V30 COUNTS 39 44 0 0 0
M  V30 BEGIN ATOM
M  V30 1 O 3.4641 -0.4999 0.0 0
M  V30 2 C 2.598 0.0 0.0 0
M  V30 3 N 1.732 -0.4999 0.0 0
M  V30 4 C 2.598 1.0 0.0 0
M  V30 5 C 0.866 0.0 0.0 0 CFG=2
M  V30 6 C 1.732 1.4999 0.0 0
M  V30 7 C 3.4641 1.5 0.0 0
M  V30 8 C 0.0 -0.4999 0.0 0
M  V30 9 C 0.866 1.0 0.0 0
M  V30 10 C 1.732 2.4999 0.0 0
M  V30 11 C 3.4641 2.5 0.0 0
M  V30 12 C 0.0 -1.5 0.0 0
M  V30 13 C -0.866 0.0 0.0 0
M  V30 14 C 2.598 3.0 0.0 0
M  V30 15 C 0.9889 3.1691 0.0 0
M  V30 16 C -0.866 -1.9999 0.0 0
M  V30 17 C 0.866 -1.9999 0.0 0
M  V30 18 C -1.732 -0.4999 0.0 0
M  V30 19 N 2.3901 3.9781 0.0 0
M  V30 20 C 1.3956 4.0826 0.0 0
M  V30 21 C 0.0107 2.9612 0.0 0
M  V30 22 N -1.732 -1.4999 0.0 0
M  V30 23 C -0.866 -3.0 0.0 0
M  V30 24 C 0.866 -2.9999 0.0 0
M  V30 25 C 3.0592 4.7212 0.0 0
M  V30 26 C 0.8956 4.9487 0.0 0
M  V30 27 C 0.0 -3.5 0.0 0
M  V30 28 C 2.7502 5.6723 0.0 0
M  V30 29 C 3.4194 6.4154 0.0 0
M  V30 30 C 1.7721 5.8802 0.0 0
M  V30 31 C 3.1103 7.3665 0.0 0
M  V30 32 C 1.4631 6.8313 0.0 0
M  V30 33 C 2.1322 7.5744 0.0 0
M  V30 34 C 1.8232 8.5255 0.0 0
M  V30 35 C 2.4923 9.2686 0.0 0
M  V30 36 C 0.845 8.7334 0.0 0
M  V30 37 C 2.1833 10.2197 0.0 0
M  V30 38 C 0.536 9.6844 0.0 0
M  V30 39 C 1.2051 10.4276 0.0 0
M  V30 END ATOM
M  V30 BEGIN BOND
M  V30 1 2 1 2
M  V30 2 1 2 3
M  V30 3 1 2 4
M  V30 4 1 3 5
M  V30 5 2 4 6
M  V30 6 1 4 7
M  V30 7 1 5 8
M  V30 8 1 5 9 CFG=3
M  V30 9 1 6 10
M  V30 10 2 7 11
M  V30 11 1 8 12
M  V30 12 2 8 13
M  V30 13 2 10 14
M  V30 14 1 10 15
M  V30 15 1 12 16
M  V30 16 2 12 17
M  V30 17 1 13 18
M  V30 18 1 14 19
M  V30 19 2 15 20
M  V30 20 1 15 21
M  V30 21 1 16 22
M  V30 22 2 16 23
M  V30 23 1 17 24
M  V30 24 1 19 25
M  V30 25 1 20 26
M  V30 26 1 23 27
M  V30 27 1 25 28
M  V30 28 2 28 29
M  V30 29 1 28 30
M  V30 30 1 29 31
M  V30 31 2 30 32
M  V30 32 2 31 33
M  V30 33 1 33 34
M  V30 34 2 34 35
M  V30 35 1 34 36
M  V30 36 1 35 37
M  V30 37 2 36 38
M  V30 38 2 37 39
M  V30 39 1 11 14
M  V30 40 2 18 22
M  V30 41 1 19 20
M  V30 42 2 24 27
M  V30 43 1 32 33
M  V30 44 1 38 39
M  V30 END BOND
M  V30 BEGIN COLLECTION
M  V30 MDLV30/STEABS ATOMS=(1 5)
M  V30 END COLLECTION
M  V30 END CTAB
M  END
>  <Molecule ChEMBL ID>
CHEMBL3695872

>  <Smiles>
Cc1c(C)n(Cc2ccc(-c3ccccc3)cc2)c2ccc(C(=O)N[C@@H](C)c3ccnc4ccccc34)cc12

>  <IC50_nM>
6

>  <Assay Description>
Lanthascreen Competitive Binding Assay: The assay was performed according to manufacturer protocol. A mixture of nM GST-PPARG-LBD, 5 nM Tb-GST-antibody, 5 nM Fluormone Pan-PPAR Green, and serial dilutions of the experimental compound, beginning at 10 ׬M downwards, was added to wells of black 384-well low-volume plates (Greiner) to a total volume of 18 ׬L. All dilutions were made in TR-FRET assay buffer C. DMSO at 2% final concentration was used as a no-ligand control. Experiment was performed in triplicate, and incubated for 2 hours in the dark prior to assay read in Perkin Elmer ViewLux ultra HTS microplate reader. FRET signal was measured by excitation at 340 nm and emission at 520 nm for fluorescein and 490 nm for terbium. Fold change over DMSO was calculated using GraphPad Prism Software (La Jolla, Calif.) by calculating 520 nm/490 nm ratio. Graphs were plotted as fold change of FRET signal for compound treatment over DMSO-only control.

$$$$
CHEMBL3699357
Actelion Java MolfileCreator 2.0

  0  0  0  0  0  0              0 V3000
M  V30 BEGIN CTAB
M  V30 COUNTS 40 44 0 0 0
M  V30 BEGIN ATOM
M  V30 1 F 4.3301 0.9999 0.0 0
M  V30 2 C 4.3301 0.0 0.0 0
M  V30 3 C 3.4641 -0.5 0.0 0
M  V30 4 C 5.1961 -0.5 0.0 0
M  V30 5 C 3.4641 -1.5 0.0 0
M  V30 6 C 2.598 0.0 0.0 0 CFG=1
M  V30 7 C 5.1961 -1.5 0.0 0
M  V30 8 C 4.3301 -2.0 0.0 0
M  V30 9 N 1.732 -0.5 0.0 0
M  V30 10 C 2.598 1.0 0.0 0
M  V30 11 C 4.3301 -3.0 0.0 0
M  V30 12 C 0.866 0.0 0.0 0
M  V30 13 O 0.866 1.0 0.0 0
M  V30 14 C 0.0 -0.5 0.0 0
M  V30 15 C 0.0 -1.4999 0.0 0
M  V30 16 C -0.866 0.0 0.0 0
M  V30 17 C -0.866 -1.9999 0.0 0
M  V30 18 C -1.732 -0.4999 0.0 0
M  V30 19 C -1.732 -1.4999 0.0 0
M  V30 20 C -1.0739 -2.9781 0.0 0
M  V30 21 N -2.4751 -2.1691 0.0 0
M  V30 22 C -2.0684 -3.0826 0.0 0
M  V30 23 C -0.4048 -3.7212 0.0 0
M  V30 24 C -3.4533 -1.9612 0.0 0
M  V30 25 C -2.5684 -3.9487 0.0 0
M  V30 26 C -4.1224 -2.7043 0.0 0
M  V30 27 C -5.1006 -2.4964 0.0 0
M  V30 28 C -3.8134 -3.6554 0.0 0
M  V30 29 C -5.7697 -3.2395 0.0 0
M  V30 30 C -4.4825 -4.3985 0.0 0
M  V30 31 C -5.4607 -4.1906 0.0 0
M  V30 32 C -6.1298 -4.9337 0.0 0
M  V30 33 C -7.108 -4.7258 0.0 0
M  V30 34 C -5.8208 -5.8848 0.0 0
M  V30 35 C -7.417 -3.7748 0.0 0
M  V30 36 C -7.7771 -5.469 0.0 0
M  V30 37 C -6.4899 -6.6279 0.0 0
M  V30 38 O -6.7478 -3.0316 0.0 0
M  V30 39 O -8.3951 -3.5669 0.0 0
M  V30 40 C -7.4681 -6.42 0.0 0
M  V30 END ATOM
M  V30 BEGIN BOND
M  V30 1 1 1 2
M  V30 2 2 2 3
M  V30 3 1 2 4
M  V30 4 1 3 5
M  V30 5 1 3 6
M  V30 6 2 4 7
M  V30 7 2 5 8
M  V30 8 1 6 9
M  V30 9 1 6 10 CFG=1
M  V30 10 1 8 11
M  V30 11 1 9 12
M  V30 12 2 12 13
M  V30 13 1 12 14
M  V30 14 2 14 15
M  V30 15 1 14 16
M  V30 16 1 15 17
M  V30 17 2 16 18
M  V30 18 2 17 19
M  V30 19 1 17 20
M  V30 20 1 19 21
M  V30 21 2 20 22
M  V30 22 1 20 23
M  V30 23 1 21 24
M  V30 24 1 22 25
M  V30 25 1 24 26
M  V30 26 2 26 27
M  V30 27 1 26 28
M  V30 28 1 27 29
M  V30 29 2 28 30
M  V30 30 2 29 31
M  V30 31 1 31 32
M  V30 32 2 32 33
M  V30 33 1 32 34
M  V30 34 1 33 35
M  V30 35 1 33 36
M  V30 36 2 34 37
M  V30 37 2 35 38
M  V30 38 1 35 39
M  V30 39 2 36 40
M  V30 40 1 7 8
M  V30 41 1 18 19
M  V30 42 1 21 22
M  V30 43 1 30 31
M  V30 44 1 37 40
M  V30 END BOND
M  V30 BEGIN COLLECTION
M  V30 MDLV30/STEABS ATOMS=(1 6)
M  V30 END COLLECTION
M  V30 END CTAB
M  END
>  <Molecule ChEMBL ID>
CHEMBL3699357

>  <Smiles>
Cc1ccc(F)c([C@H](C)NC(=O)c2ccc3c(c2)c(C)c(C)n3Cc2ccc(-c3ccccc3C(=O)O)cc2)c1

>  <IC50_nM>
6

>  <Assay Description>
Lanthascreen Competitive Binding Assay: The assay was performed according to manufacturer protocol. A mixture of nM GST-PPARG-LBD, 5 nM Tb-GST-antibody, 5 nM Fluormone Pan-PPAR Green, and serial dilutions of the experimental compound, beginning at 10 ׬M downwards, was added to wells of black 384-well low-volume plates (Greiner) to a total volume of 18 ׬L. All dilutions were made in TR-FRET assay buffer C. DMSO at 2% final concentration was used as a no-ligand control. Experiment was performed in triplicate, and incubated for 2 hours in the dark prior to assay read in Perkin Elmer ViewLux ultra HTS microplate reader. FRET signal was measured by excitation at 340 nm and emission at 520 nm for fluorescein and 490 nm for terbium. Fold change over DMSO was calculated using GraphPad Prism Software (La Jolla, Calif.) by calculating 520 nm/490 nm ratio. Graphs were plotted as fold change of FRET signal for compound treatment over DMSO-only control.

$$$$
CHEMBL5267263
Actelion Java MolfileCreator 2.0

  0  0  0  0  0  0              0 V3000
M  V30 BEGIN CTAB
M  V30 COUNTS 33 35 0 0 0
M  V30 BEGIN ATOM
M  V30 1 Cl 6.0621 -1.9999 0.0 0
M  V30 2 C 5.1961 -1.4999 0.0 0
M  V30 3 C 5.1961 -0.5 0.0 0
M  V30 4 C 4.3301 -1.9999 0.0 0
M  V30 5 C 6.0621 0.0 0.0 0
M  V30 6 C 4.3301 0.0 0.0 0
M  V30 7 C 3.4641 -1.5 0.0 0
M  V30 8 O 6.0621 0.9999 0.0 0
M  V30 9 N 6.9282 -0.5 0.0 0
M  V30 10 C 3.4641 -0.5 0.0 0
M  V30 11 F 2.598 -2.0 0.0 0
M  V30 12 C 7.7942 0.0 0.0 0
M  V30 13 C 2.598 0.0 0.0 0
M  V30 14 C 8.6602 -0.5 0.0 0
M  V30 15 C 7.7942 0.9999 0.0 0
M  V30 16 O 2.598 1.0 0.0 0
M  V30 17 N 1.732 -0.5 0.0 0
M  V30 18 C 9.5262 0.0 0.0 0
M  V30 19 C 8.6602 -1.5 0.0 0
M  V30 20 C 8.6602 1.4999 0.0 0
M  V30 21 C 0.866 0.0 0.0 0
M  V30 22 C 9.5262 0.9999 0.0 0
M  V30 23 C 0.0 -0.5 0.0 0
M  V30 24 O 10.3923 1.4999 0.0 0
M  V30 25 C -0.866 0.0 0.0 0
M  V30 26 C 0.0 -1.4999 0.0 0
M  V30 27 C 11.2583 0.9999 0.0 0
M  V30 28 C -1.732 -0.4999 0.0 0
M  V30 29 C -0.866 -1.9999 0.0 0
M  V30 30 F 11.2583 0.0 0.0 0
M  V30 31 F 12.1243 1.4999 0.0 0
M  V30 32 C -1.732 -1.4999 0.0 0
M  V30 33 F -2.598 -1.9999 0.0 0
M  V30 END ATOM
M  V30 BEGIN BOND
M  V30 1 1 1 2
M  V30 2 2 2 3
M  V30 3 1 2 4
M  V30 4 1 3 5
M  V30 5 1 3 6
M  V30 6 2 4 7
M  V30 7 2 5 8
M  V30 8 1 5 9
M  V30 9 2 6 10
M  V30 10 1 7 11
M  V30 11 1 9 12
M  V30 12 1 10 13
M  V30 13 2 12 14
M  V30 14 1 12 15
M  V30 15 2 13 16
M  V30 16 1 13 17
M  V30 17 1 14 18
M  V30 18 1 14 19
M  V30 19 2 15 20
M  V30 20 1 17 21
M  V30 21 2 18 22
M  V30 22 1 21 23
M  V30 23 1 22 24
M  V30 24 2 23 25
M  V30 25 1 23 26
M  V30 26 1 24 27
M  V30 27 1 25 28
M  V30 28 2 26 29
M  V30 29 1 27 30
M  V30 30 1 27 31
M  V30 31 2 28 32
M  V30 32 1 32 33
M  V30 33 1 7 10
M  V30 34 1 20 22
M  V30 35 1 29 32
M  V30 END BOND
M  V30 END CTAB
M  END
>  <Molecule ChEMBL ID>
CHEMBL5267263

>  <Smiles>
Cc1cc(OC(F)F)ccc1NC(=O)c1cc(C(=O)NCc2ccc(F)cc2)c(F)cc1Cl

>  <IC50_nM>
6.1

>  <Assay Description>
Inverse agonist activity at human PPARgamma expressed in CHO cells co-expressing GAL4-NHR-LBD assessed as transcriptional repression preincubated for 6 hrs followed by luciferin addition by luminescence method

$$$$
CHEMBL5187164
Actelion Java MolfileCreator 2.0

  0  0  0  0  0  0              0 V3000
M  V30 BEGIN CTAB
M  V30 COUNTS 30 33 0 0 0
M  V30 BEGIN ATOM
M  V30 1 Br 1.732 1.4999 0.0 0
M  V30 2 C 2.598 1.0 0.0 0
M  V30 3 C 2.598 0.0 0.0 0
M  V30 4 C 3.4641 1.4999 0.0 0
M  V30 5 C 1.732 -0.5 0.0 0
M  V30 6 C 3.4641 -0.5 0.0 0
M  V30 7 C 4.3301 1.0 0.0 0
M  V30 8 O 1.732 -1.5 0.0 0
M  V30 9 N 0.866 0.0 0.0 0
M  V30 10 C 4.3301 0.0 0.0 0
M  V30 11 C 0.0 -0.5 0.0 0
M  V30 12 N 5.1961 -0.5 0.0 0 CHG=1
M  V30 13 C -0.866 0.0 0.0 0
M  V30 14 C 0.0 -1.5 0.0 0
M  V30 15 O 5.1961 -1.5 0.0 0
M  V30 16 O 6.0621 0.0 0.0 0 CHG=-1
M  V30 17 C -1.732 -0.4999 0.0 0
M  V30 18 C -0.866 -1.9999 0.0 0
M  V30 19 N -2.6831 -0.1909 0.0 0
M  V30 20 C -1.732 -1.4999 0.0 0
M  V30 21 C -3.2708 -0.9999 0.0 0
M  V30 22 O -2.6831 -1.809 0.0 0
M  V30 23 C -4.2708 -0.9999 0.0 0
M  V30 24 C -4.7708 -0.1339 0.0 0
M  V30 25 C -4.7708 -1.866 0.0 0
M  V30 26 C -5.7708 -0.1339 0.0 0
M  V30 27 C -5.7708 -1.866 0.0 0
M  V30 28 C -6.2708 -0.9999 0.0 0
M  V30 29 C -7.2708 -0.9999 0.0 0
M  V30 30 C -7.7708 -1.866 0.0 0
M  V30 END ATOM
M  V30 BEGIN BOND
M  V30 1 1 1 2
M  V30 2 2 2 3
M  V30 3 1 2 4
M  V30 4 1 3 5
M  V30 5 1 3 6
M  V30 6 2 4 7
M  V30 7 2 5 8
M  V30 8 1 5 9
M  V30 9 2 6 10
M  V30 10 1 9 11
M  V30 11 1 10 12
M  V30 12 2 11 13
M  V30 13 1 11 14
M  V30 14 2 12 15
M  V30 15 1 12 16
M  V30 16 1 13 17
M  V30 17 2 14 18
M  V30 18 1 17 19
M  V30 19 2 17 20
M  V30 20 2 19 21
M  V30 21 1 20 22
M  V30 22 1 21 23
M  V30 23 2 23 24
M  V30 24 1 23 25
M  V30 25 1 24 26
M  V30 26 2 25 27
M  V30 27 2 26 28
M  V30 28 1 28 29
M  V30 29 1 29 30
M  V30 30 1 7 10
M  V30 31 1 18 20
M  V30 32 1 21 22
M  V30 33 1 27 28
M  V30 END BOND
M  V30 END CTAB
M  END
>  <Molecule ChEMBL ID>
CHEMBL5187164

>  <Smiles>
CCc1ccc(-c2nc3cc(NC(=O)c4cc([N+](=O)[O-])ccc4Br)ccc3o2)cc1

>  <IC50_nM>
6.3

>  <Assay Description>
Inverse agonist activity at GAL4-tagged human PPARgamma LBD expressed in CHO cells measured after 6 hrs by firefly luciferase reporter assay

$$$$
CHEMBL5281842
Actelion Java MolfileCreator 2.0

  0  0  0  0  0  0              0 V3000
M  V30 BEGIN CTAB
M  V30 COUNTS 39 43 0 0 0
M  V30 BEGIN ATOM
M  V30 1 Cl 6.0621 -1.9999 0.0 0
M  V30 2 C 5.1961 -1.4999 0.0 0
M  V30 3 C 5.1961 -0.5 0.0 0
M  V30 4 C 4.3301 -1.9999 0.0 0
M  V30 5 C 6.0621 0.0 0.0 0
M  V30 6 C 4.3301 0.0 0.0 0
M  V30 7 C 3.4641 -1.5 0.0 0
M  V30 8 O 6.0621 0.9999 0.0 0
M  V30 9 N 6.9282 -0.5 0.0 0
M  V30 10 C 3.4641 -0.5 0.0 0
M  V30 11 F 2.598 -2.0 0.0 0
M  V30 12 C 7.7942 0.0 0.0 0
M  V30 13 C 2.598 0.0 0.0 0
M  V30 14 C 8.6602 -0.5 0.0 0
M  V30 15 C 7.7942 1.0 0.0 0
M  V30 16 O 2.598 1.0 0.0 0
M  V30 17 N 1.732 -0.5 0.0 0
M  V30 18 C 9.5262 0.0 0.0 0
M  V30 19 C 8.6602 1.4999 0.0 0
M  V30 20 C 0.866 0.0 0.0 0
M  V30 21 N 10.4773 -0.309 0.0 0
M  V30 22 C 9.5262 0.9999 0.0 0
M  V30 23 C 0.0 -0.5 0.0 0
M  V30 24 C 11.0651 0.4999 0.0 0
M  V30 25 O 10.4773 1.309 0.0 0
M  V30 26 C -0.866 0.0 0.0 0
M  V30 27 C 0.0 -1.4999 0.0 0
M  V30 28 C 12.0651 0.4999 0.0 0
M  V30 29 C -1.732 -0.4999 0.0 0
M  V30 30 C -0.866 -1.9999 0.0 0
M  V30 31 C 12.5651 -0.366 0.0 0
M  V30 32 C 12.5651 1.366 0.0 0
M  V30 33 F -2.598 0.0 0.0 0
M  V30 34 C -1.732 -1.4999 0.0 0
M  V30 35 C 13.5651 -0.366 0.0 0
M  V30 36 C 13.5651 1.366 0.0 0
M  V30 37 F -2.598 -1.9999 0.0 0
M  V30 38 C 14.0651 0.4999 0.0 0
M  V30 39 C 14.0651 -1.232 0.0 0
M  V30 END ATOM
M  V30 BEGIN BOND
M  V30 1 1 1 2
M  V30 2 2 2 3
M  V30 3 1 2 4
M  V30 4 1 3 5
M  V30 5 1 3 6
M  V30 6 2 4 7
M  V30 7 2 5 8
M  V30 8 1 5 9
M  V30 9 2 6 10
M  V30 10 1 7 11
M  V30 11 1 9 12
M  V30 12 1 10 13
M  V30 13 2 12 14
M  V30 14 1 12 15
M  V30 15 2 13 16
M  V30 16 1 13 17
M  V30 17 1 14 18
M  V30 18 2 15 19
M  V30 19 1 17 20
M  V30 20 1 18 21
M  V30 21 2 18 22
M  V30 22 1 20 23
M  V30 23 2 21 24
M  V30 24 1 22 25
M  V30 25 2 23 26
M  V30 26 1 23 27
M  V30 27 1 24 28
M  V30 28 1 26 29
M  V30 29 2 27 30
M  V30 30 2 28 31
M  V30 31 1 28 32
M  V30 32 1 29 33
M  V30 33 2 29 34
M  V30 34 1 31 35
M  V30 35 2 32 36
M  V30 36 1 34 37
M  V30 37 2 35 38
M  V30 38 1 35 39
M  V30 39 1 7 10
M  V30 40 1 19 22
M  V30 41 1 24 25
M  V30 42 1 30 34
M  V30 43 1 36 38
M  V30 END BOND
M  V30 END CTAB
M  END
>  <Molecule ChEMBL ID>
CHEMBL5281842

>  <Smiles>
Cc1cccc(-c2nc3cc(NC(=O)c4cc(C(=O)NCc5ccc(F)c(F)c5)c(F)cc4Cl)ccc3o2)c1

>  <IC50_nM>
6.6

>  <Assay Description>
Inverse agonist activity at human PPARgamma in human RT112/84 transfected with NLuc-fused FABP4 assessed as reduction in PPARgamma transactivation incubated for 6 to 18 hrs by Nano-Glo luciferase assay

$$$$
CHEMBL1947143
Actelion Java MolfileCreator 2.0

  0  0  0  0  0  0              0 V3000
M  V30 BEGIN CTAB
M  V30 COUNTS 35 39 0 0 0
M  V30 BEGIN ATOM
M  V30 1 Cl 4.3301 0.9999 0.0 0
M  V30 2 C 4.3301 0.0 0.0 0
M  V30 3 C 3.4641 -0.5 0.0 0
M  V30 4 C 5.1961 -0.5 0.0 0
M  V30 5 O 2.598 0.0 0.0 0
M  V30 6 C 3.4641 -1.5 0.0 0
M  V30 7 C 5.1961 -1.5 0.0 0
M  V30 8 C 1.732 -0.5 0.0 0 CFG=1
M  V30 9 C 4.3301 -2.0 0.0 0
M  V30 10 C 0.866 0.0 0.0 0
M  V30 11 C 1.732 -1.5 0.0 0
M  V30 12 C 4.3301 -3.0 0.0 0
M  V30 13 O 0.866 1.0 0.0 0
M  V30 14 O 0.0 -0.5 0.0 0
M  V30 15 N 5.1961 -3.5 0.0 0
M  V30 16 C 5.3006 -4.4945 0.0 0
M  V30 17 C 6.1096 -3.0932 0.0 0
M  V30 18 O 4.5575 -5.1636 0.0 0
M  V30 19 N 6.2788 -4.7024 0.0 0
M  V30 20 C 6.7788 -3.8364 0.0 0
M  V30 21 C 6.4187 -2.1422 0.0 0
M  V30 22 C 6.6855 -5.6159 0.0 0
M  V30 23 C 7.7569 -3.6284 0.0 0
M  V30 24 C 7.3968 -1.9342 0.0 0
M  V30 25 N 6.1855 -6.482 0.0 0
M  V30 26 C 7.6637 -5.8238 0.0 0
M  V30 27 C 8.0659 -2.6774 0.0 0
M  V30 28 O 6.8546 -7.2251 0.0 0
M  V30 29 C 7.7682 -6.8184 0.0 0
M  V30 30 C 8.4727 -5.2361 0.0 0
M  V30 31 C 8.6817 -7.2251 0.0 0
M  V30 32 C 9.3862 -5.6428 0.0 0
M  V30 33 C 9.4908 -6.6373 0.0 0
M  V30 34 O 10.4043 -7.0441 0.0 0
M  V30 35 C 11.2133 -6.4563 0.0 0
M  V30 END ATOM
M  V30 BEGIN BOND
M  V30 1 1 1 2
M  V30 2 2 2 3
M  V30 3 1 2 4
M  V30 4 1 3 5
M  V30 5 1 3 6
M  V30 6 2 4 7
M  V30 7 1 5 8
M  V30 8 2 6 9
M  V30 9 1 8 10
M  V30 10 1 8 11 CFG=3
M  V30 11 1 9 12
M  V30 12 2 10 13
M  V30 13 1 10 14
M  V30 14 1 12 15
M  V30 15 1 15 16
M  V30 16 1 15 17
M  V30 17 2 16 18
M  V30 18 1 16 19
M  V30 19 2 17 20
M  V30 20 1 17 21
M  V30 21 1 19 22
M  V30 22 1 20 23
M  V30 23 2 21 24
M  V30 24 2 22 25
M  V30 25 1 22 26
M  V30 26 2 23 27
M  V30 27 1 25 28
M  V30 28 2 26 29
M  V30 29 1 26 30
M  V30 30 1 29 31
M  V30 31 2 30 32
M  V30 32 2 31 33
M  V30 33 1 33 34
M  V30 34 1 34 35
M  V30 35 1 7 9
M  V30 36 1 19 20
M  V30 37 1 24 27
M  V30 38 1 28 29
M  V30 39 1 32 33
M  V30 END BOND
M  V30 BEGIN COLLECTION
M  V30 MDLV30/STEABS ATOMS=(1 8)
M  V30 END COLLECTION
M  V30 END CTAB
M  END
>  <Molecule ChEMBL ID>
CHEMBL1947143

>  <Smiles>
COc1ccc2c(-n3c(=O)n(Cc4ccc(Cl)c(O[C@H](C)C(=O)O)c4)c4ccccc43)noc2c1

>  <IC50_nM>
6.9

>  <Assay Description>
Binding affinity to human PPARgamma by scintillation proximity assay

$$$$
CHEMBL393939
Actelion Java MolfileCreator 2.0

  0  0  0  0  0  0              0 V3000
M  V30 BEGIN CTAB
M  V30 COUNTS 33 35 0 0 0
M  V30 BEGIN ATOM
M  V30 1 O 5.1961 -0.75 0.0 0
M  V30 2 C 3.8971 0.0 0.0 0
M  V30 3 N 2.598 -0.75 0.0 0
M  V30 4 C 3.8971 1.5 0.0 0
M  V30 5 C 1.299 0.0 0.0 0
M  V30 6 C 5.1961 2.25 0.0 0
M  V30 7 C 2.598 2.25 0.0 0
M  V30 8 C 0.0 -0.75 0.0 0
M  V30 9 C 5.1961 3.75 0.0 0
M  V30 10 C 6.4951 1.5 0.0 0
M  V30 11 C 2.598 3.75 0.0 0
M  V30 12 C -1.299 0.0 0.0 0
M  V30 13 C 0.0 -2.25 0.0 0
M  V30 14 C 3.8971 4.5 0.0 0
M  V30 15 C -2.598 -0.75 0.0 0
M  V30 16 C -1.299 -3.0 0.0 0
M  V30 17 C 3.8971 6.0 0.0 0
M  V30 18 O -3.8971 0.0 0.0 0
M  V30 19 C -2.598 -2.25 0.0 0
M  V30 20 C -5.1961 -0.75 0.0 0
M  V30 21 C -6.4951 0.0 0.0 0
M  V30 22 C -5.1961 -2.25 0.0 0
M  V30 23 C -7.7942 -0.75 0.0 0
M  V30 24 C -6.4951 -3.0 0.0 0
M  V30 25 C -7.7942 -2.25 0.0 0
M  V30 26 C -9.0932 0.0 0.0 0
M  V30 27 O -9.0932 -3.0 0.0 0
M  V30 28 C -9.0932 -4.5 0.0 0
M  V30 29 C -10.3923 -5.25 0.0 0
M  V30 30 C -8.3433 -5.799 0.0 0
M  V30 31 C -7.5933 -4.4999 0.0 0
M  V30 32 O -11.6913 -4.5 0.0 0
M  V30 33 O -10.3923 -6.75 0.0 0
M  V30 END ATOM
M  V30 BEGIN BOND
M  V30 1 2 1 2
M  V30 2 1 2 3
M  V30 3 1 2 4
M  V30 4 1 3 5
M  V30 5 2 4 6
M  V30 6 1 4 7
M  V30 7 1 5 8
M  V30 8 1 6 9
M  V30 9 1 6 10
M  V30 10 2 7 11
M  V30 11 2 8 12
M  V30 12 1 8 13
M  V30 13 2 9 14
M  V30 14 1 12 15
M  V30 15 2 13 16
M  V30 16 1 14 17
M  V30 17 1 15 18
M  V30 18 2 15 19
M  V30 19 1 18 20
M  V30 20 2 20 21
M  V30 21 1 20 22
M  V30 22 1 21 23
M  V30 23 2 22 24
M  V30 24 2 23 25
M  V30 25 1 23 26
M  V30 26 1 25 27
M  V30 27 1 27 28
M  V30 28 1 28 29
M  V30 29 1 28 30
M  V30 30 1 28 31
M  V30 31 2 29 32
M  V30 32 1 29 33
M  V30 33 1 11 14
M  V30 34 1 16 19
M  V30 35 1 24 25
M  V30 END BOND
M  V30 END CTAB
M  END
>  <Molecule ChEMBL ID>
CHEMBL393939

>  <Smiles>
Cc1ccc(C(=O)NCc2cccc(Oc3ccc(OC(C)(C)C(=O)O)c(C)c3)c2)c(C)c1

>  <IC50_nM>
6.998

>  <Assay Description>
Agonist activity at PPARgamma

$$$$
CHEMBL237085
Actelion Java MolfileCreator 2.0

  0  0  0  0  0  0              0 V3000
M  V30 BEGIN CTAB
M  V30 COUNTS 37 39 0 0 0
M  V30 BEGIN ATOM
M  V30 1 F 9.8432 -1.7009 0.0 0
M  V30 2 C 9.0932 -3.0 0.0 0
M  V30 3 F 10.3923 -3.75 0.0 0
M  V30 4 F 8.3432 -4.299 0.0 0
M  V30 5 C 7.7942 -2.25 0.0 0
M  V30 6 C 7.7942 -0.75 0.0 0
M  V30 7 C 6.4951 -3.0 0.0 0
M  V30 8 C 6.4951 0.0 0.0 0
M  V30 9 C 5.1961 -2.25 0.0 0
M  V30 10 O 6.4951 1.5 0.0 0
M  V30 11 C 5.1961 -0.75 0.0 0
M  V30 12 C 5.1961 2.25 0.0 0
M  V30 13 C 3.8971 0.0 0.0 0
M  V30 14 O 3.8971 1.5 0.0 0
M  V30 15 N 2.598 -0.75 0.0 0
M  V30 16 C 1.299 0.0 0.0 0
M  V30 17 C 0.0 -0.75 0.0 0
M  V30 18 C -1.299 0.0 0.0 0
M  V30 19 C 0.0 -2.25 0.0 0
M  V30 20 C -2.598 -0.75 0.0 0
M  V30 21 C -1.299 -3.0 0.0 0
M  V30 22 O -3.8971 0.0 0.0 0
M  V30 23 C -2.598 -2.25 0.0 0
M  V30 24 C -5.1961 -0.75 0.0 0
M  V30 25 C -6.4951 0.0 0.0 0
M  V30 26 C -5.1961 -2.25 0.0 0
M  V30 27 C -7.7942 -0.75 0.0 0
M  V30 28 C -6.4951 -3.0 0.0 0
M  V30 29 C -7.7942 -2.25 0.0 0
M  V30 30 C -9.0932 0.0 0.0 0
M  V30 31 O -9.0932 -3.0 0.0 0
M  V30 32 C -9.0932 -4.5 0.0 0
M  V30 33 C -10.3923 -5.25 0.0 0
M  V30 34 C -8.3433 -5.799 0.0 0
M  V30 35 C -7.5933 -4.4999 0.0 0
M  V30 36 O -11.6913 -4.5 0.0 0
M  V30 37 O -10.3923 -6.75 0.0 0
M  V30 END ATOM
M  V30 BEGIN BOND
M  V30 1 1 1 2
M  V30 2 1 2 3
M  V30 3 1 2 4
M  V30 4 1 2 5
M  V30 5 2 5 6
M  V30 6 1 5 7
M  V30 7 1 6 8
M  V30 8 2 7 9
M  V30 9 1 8 10
M  V30 10 2 8 11
M  V30 11 1 10 12
M  V30 12 1 11 13
M  V30 13 2 13 14
M  V30 14 1 13 15
M  V30 15 1 15 16
M  V30 16 1 16 17
M  V30 17 2 17 18
M  V30 18 1 17 19
M  V30 19 1 18 20
M  V30 20 2 19 21
M  V30 21 1 20 22
M  V30 22 2 20 23
M  V30 23 1 22 24
M  V30 24 2 24 25
M  V30 25 1 24 26
M  V30 26 1 25 27
M  V30 27 2 26 28
M  V30 28 2 27 29
M  V30 29 1 27 30
M  V30 30 1 29 31
M  V30 31 1 31 32
M  V30 32 1 32 33
M  V30 33 1 32 34
M  V30 34 1 32 35
M  V30 35 2 33 36
M  V30 36 1 33 37
M  V30 37 1 9 11
M  V30 38 1 21 23
M  V30 39 1 28 29
M  V30 END BOND
M  V30 END CTAB
M  END
>  <Molecule ChEMBL ID>
CHEMBL237085

>  <Smiles>
COc1cc(C(F)(F)F)ccc1C(=O)NCc1cccc(Oc2ccc(OC(C)(C)C(=O)O)c(C)c2)c1

>  <IC50_nM>
6.998

>  <Assay Description>
Agonist activity at PPARgamma

$$$$
CHEMBL182230
Actelion Java MolfileCreator 2.0

  0  0  0  0  0  0              0 V3000
M  V30 BEGIN CTAB
M  V30 COUNTS 32 34 0 0 0
M  V30 BEGIN ATOM
M  V30 1 O 3.4641 -0.5 0.0 0
M  V30 2 C 2.598 0.0 0.0 0
M  V30 3 O 2.598 1.0 0.0 0
M  V30 4 C 1.732 -0.5 0.0 0 CFG=1
M  V30 5 O 1.732 -1.5 0.0 0
M  V30 6 C 0.866 0.0 0.0 0
M  V30 7 C 2.598 -1.9999 0.0 0
M  V30 8 C 0.0 -0.5 0.0 0
M  V30 9 C -0.866 0.0 0.0 0
M  V30 10 C 0.0 -1.4999 0.0 0
M  V30 11 C -1.732 -0.4999 0.0 0
M  V30 12 C -0.866 -1.9999 0.0 0
M  V30 13 C -1.732 -1.4999 0.0 0
M  V30 14 C -2.598 -1.9999 0.0 0
M  V30 15 C -3.4641 -2.4999 0.0 0
M  V30 16 C -4.3301 -2.9999 0.0 0
M  V30 17 C -4.3301 -3.9999 0.0 0
M  V30 18 C -3.4641 -4.4999 0.0 0
M  V30 19 O -3.4641 -5.4999 0.0 0
M  V30 20 C -2.598 -6.0 0.0 0
M  V30 21 C -2.598 -7.0 0.0 0
M  V30 22 C -1.732 -5.5 0.0 0
M  V30 23 C -1.732 -7.5 0.0 0
M  V30 24 C -0.866 -6.0 0.0 0
M  V30 25 C -0.866 -7.0 0.0 0
M  V30 26 O 0.0 -7.5 0.0 0
M  V30 27 C 0.866 -7.0 0.0 0
M  V30 28 C 1.732 -7.5 0.0 0
M  V30 29 C 0.866 -6.0 0.0 0
M  V30 30 C 2.598 -7.0 0.0 0
M  V30 31 C 1.732 -5.5 0.0 0
M  V30 32 C 2.598 -6.0 0.0 0
M  V30 END ATOM
M  V30 BEGIN BOND
M  V30 1 2 1 2
M  V30 2 1 2 3
M  V30 3 1 2 4
M  V30 4 1 4 5 CFG=1
M  V30 5 1 4 6
M  V30 6 1 5 7
M  V30 7 1 6 8
M  V30 8 2 8 9
M  V30 9 1 8 10
M  V30 10 1 9 11
M  V30 11 2 10 12
M  V30 12 2 11 13
M  V30 13 1 13 14
M  V30 14 3 14 15
M  V30 15 1 15 16
M  V30 16 1 16 17
M  V30 17 1 17 18
M  V30 18 1 18 19
M  V30 19 1 19 20
M  V30 20 2 20 21
M  V30 21 1 20 22
M  V30 22 1 21 23
M  V30 23 2 22 24
M  V30 24 2 23 25
M  V30 25 1 25 26
M  V30 26 1 26 27
M  V30 27 2 27 28
M  V30 28 1 27 29
M  V30 29 1 28 30
M  V30 30 2 29 31
M  V30 31 2 30 32
M  V30 32 1 12 13
M  V30 33 1 24 25
M  V30 34 1 31 32
M  V30 END BOND
M  V30 BEGIN COLLECTION
M  V30 MDLV30/STEABS ATOMS=(1 4)
M  V30 END COLLECTION
M  V30 END CTAB
M  END
>  <Molecule ChEMBL ID>
CHEMBL182230

>  <Smiles>
CO[C@@H](Cc1ccc(C#CCCCOc2ccc(Oc3ccccc3)cc2)cc1)C(=O)O

>  <IC50_nM>
6.998

>  <Assay Description>
Agonist activity at PPARgamma

$$$$
CHEMBL393939
Actelion Java MolfileCreator 2.0

  0  0  0  0  0  0              0 V3000
M  V30 BEGIN CTAB
M  V30 COUNTS 33 35 0 0 0
M  V30 BEGIN ATOM
M  V30 1 O 5.1961 -0.75 0.0 0
M  V30 2 C 3.8971 0.0 0.0 0
M  V30 3 N 2.598 -0.75 0.0 0
M  V30 4 C 3.8971 1.5 0.0 0
M  V30 5 C 1.299 0.0 0.0 0
M  V30 6 C 5.1961 2.25 0.0 0
M  V30 7 C 2.598 2.25 0.0 0
M  V30 8 C 0.0 -0.75 0.0 0
M  V30 9 C 5.1961 3.75 0.0 0
M  V30 10 C 6.4951 1.5 0.0 0
M  V30 11 C 2.598 3.75 0.0 0
M  V30 12 C -1.299 0.0 0.0 0
M  V30 13 C 0.0 -2.25 0.0 0
M  V30 14 C 3.8971 4.5 0.0 0
M  V30 15 C -2.598 -0.75 0.0 0
M  V30 16 C -1.299 -3.0 0.0 0
M  V30 17 C 3.8971 6.0 0.0 0
M  V30 18 O -3.8971 0.0 0.0 0
M  V30 19 C -2.598 -2.25 0.0 0
M  V30 20 C -5.1961 -0.75 0.0 0
M  V30 21 C -6.4951 0.0 0.0 0
M  V30 22 C -5.1961 -2.25 0.0 0
M  V30 23 C -7.7942 -0.75 0.0 0
M  V30 24 C -6.4951 -3.0 0.0 0
M  V30 25 C -7.7942 -2.25 0.0 0
M  V30 26 C -9.0932 0.0 0.0 0
M  V30 27 O -9.0932 -3.0 0.0 0
M  V30 28 C -9.0932 -4.5 0.0 0
M  V30 29 C -10.3923 -5.25 0.0 0
M  V30 30 C -8.3433 -5.799 0.0 0
M  V30 31 C -7.5933 -4.4999 0.0 0
M  V30 32 O -11.6913 -4.5 0.0 0
M  V30 33 O -10.3923 -6.75 0.0 0
M  V30 END ATOM
M  V30 BEGIN BOND
M  V30 1 2 1 2
M  V30 2 1 2 3
M  V30 3 1 2 4
M  V30 4 1 3 5
M  V30 5 2 4 6
M  V30 6 1 4 7
M  V30 7 1 5 8
M  V30 8 1 6 9
M  V30 9 1 6 10
M  V30 10 2 7 11
M  V30 11 2 8 12
M  V30 12 1 8 13
M  V30 13 2 9 14
M  V30 14 1 12 15
M  V30 15 2 13 16
M  V30 16 1 14 17
M  V30 17 1 15 18
M  V30 18 2 15 19
M  V30 19 1 18 20
M  V30 20 2 20 21
M  V30 21 1 20 22
M  V30 22 1 21 23
M  V30 23 2 22 24
M  V30 24 2 23 25
M  V30 25 1 23 26
M  V30 26 1 25 27
M  V30 27 1 27 28
M  V30 28 1 28 29
M  V30 29 1 28 30
M  V30 30 1 28 31
M  V30 31 2 29 32
M  V30 32 1 29 33
M  V30 33 1 11 14
M  V30 34 1 16 19
M  V30 35 1 24 25
M  V30 END BOND
M  V30 END CTAB
M  END
>  <Molecule ChEMBL ID>
CHEMBL393939

>  <Smiles>
Cc1ccc(C(=O)NCc2cccc(Oc3ccc(OC(C)(C)C(=O)O)c(C)c3)c2)c(C)c1

>  <IC50_nM>
7

>  <Assay Description>
Displacement of [3H]2-methyl-2-(4-{3-{propyl-(5-pyridin-2-yl-thiophene-2-sulfonyl)-amino}-propyl}-phenoxy)-propionic acid from human PPARgamma

$$$$
CHEMBL393939
Actelion Java MolfileCreator 2.0

  0  0  0  0  0  0              0 V3000
M  V30 BEGIN CTAB
M  V30 COUNTS 33 35 0 0 0
M  V30 BEGIN ATOM
M  V30 1 O 5.1961 -0.75 0.0 0
M  V30 2 C 3.8971 0.0 0.0 0
M  V30 3 N 2.598 -0.75 0.0 0
M  V30 4 C 3.8971 1.5 0.0 0
M  V30 5 C 1.299 0.0 0.0 0
M  V30 6 C 5.1961 2.25 0.0 0
M  V30 7 C 2.598 2.25 0.0 0
M  V30 8 C 0.0 -0.75 0.0 0
M  V30 9 C 5.1961 3.75 0.0 0
M  V30 10 C 6.4951 1.5 0.0 0
M  V30 11 C 2.598 3.75 0.0 0
M  V30 12 C -1.299 0.0 0.0 0
M  V30 13 C 0.0 -2.25 0.0 0
M  V30 14 C 3.8971 4.5 0.0 0
M  V30 15 C -2.598 -0.75 0.0 0
M  V30 16 C -1.299 -3.0 0.0 0
M  V30 17 C 3.8971 6.0 0.0 0
M  V30 18 O -3.8971 0.0 0.0 0
M  V30 19 C -2.598 -2.25 0.0 0
M  V30 20 C -5.1961 -0.75 0.0 0
M  V30 21 C -6.4951 0.0 0.0 0
M  V30 22 C -5.1961 -2.25 0.0 0
M  V30 23 C -7.7942 -0.75 0.0 0
M  V30 24 C -6.4951 -3.0 0.0 0
M  V30 25 C -7.7942 -2.25 0.0 0
M  V30 26 C -9.0932 0.0 0.0 0
M  V30 27 O -9.0932 -3.0 0.0 0
M  V30 28 C -9.0932 -4.5 0.0 0
M  V30 29 C -10.3923 -5.25 0.0 0
M  V30 30 C -8.3433 -5.799 0.0 0
M  V30 31 C -7.5933 -4.4999 0.0 0
M  V30 32 O -11.6913 -4.5 0.0 0
M  V30 33 O -10.3923 -6.75 0.0 0
M  V30 END ATOM
M  V30 BEGIN BOND
M  V30 1 2 1 2
M  V30 2 1 2 3
M  V30 3 1 2 4
M  V30 4 1 3 5
M  V30 5 2 4 6
M  V30 6 1 4 7
M  V30 7 1 5 8
M  V30 8 1 6 9
M  V30 9 1 6 10
M  V30 10 2 7 11
M  V30 11 2 8 12
M  V30 12 1 8 13
M  V30 13 2 9 14
M  V30 14 1 12 15
M  V30 15 2 13 16
M  V30 16 1 14 17
M  V30 17 1 15 18
M  V30 18 2 15 19
M  V30 19 1 18 20
M  V30 20 2 20 21
M  V30 21 1 20 22
M  V30 22 1 21 23
M  V30 23 2 22 24
M  V30 24 2 23 25
M  V30 25 1 23 26
M  V30 26 1 25 27
M  V30 27 1 27 28
M  V30 28 1 28 29
M  V30 29 1 28 30
M  V30 30 1 28 31
M  V30 31 2 29 32
M  V30 32 1 29 33
M  V30 33 1 11 14
M  V30 34 1 16 19
M  V30 35 1 24 25
M  V30 END BOND
M  V30 END CTAB
M  END
>  <Molecule ChEMBL ID>
CHEMBL393939

>  <Smiles>
Cc1ccc(C(=O)NCc2cccc(Oc3ccc(OC(C)(C)C(=O)O)c(C)c3)c2)c(C)c1

>  <IC50_nM>
7

>  <Assay Description>
Agonist activity at PPARgamma

$$$$
CHEMBL182230
Actelion Java MolfileCreator 2.0

  0  0  0  0  0  0              0 V3000
M  V30 BEGIN CTAB
M  V30 COUNTS 32 34 0 0 0
M  V30 BEGIN ATOM
M  V30 1 O 3.4641 -0.5 0.0 0
M  V30 2 C 2.598 0.0 0.0 0
M  V30 3 O 2.598 1.0 0.0 0
M  V30 4 C 1.732 -0.5 0.0 0 CFG=1
M  V30 5 O 1.732 -1.5 0.0 0
M  V30 6 C 0.866 0.0 0.0 0
M  V30 7 C 2.598 -1.9999 0.0 0
M  V30 8 C 0.0 -0.5 0.0 0
M  V30 9 C -0.866 0.0 0.0 0
M  V30 10 C 0.0 -1.4999 0.0 0
M  V30 11 C -1.732 -0.4999 0.0 0
M  V30 12 C -0.866 -1.9999 0.0 0
M  V30 13 C -1.732 -1.4999 0.0 0
M  V30 14 C -2.598 -1.9999 0.0 0
M  V30 15 C -3.4641 -2.4999 0.0 0
M  V30 16 C -4.3301 -2.9999 0.0 0
M  V30 17 C -4.3301 -3.9999 0.0 0
M  V30 18 C -3.4641 -4.4999 0.0 0
M  V30 19 O -3.4641 -5.4999 0.0 0
M  V30 20 C -2.598 -6.0 0.0 0
M  V30 21 C -2.598 -7.0 0.0 0
M  V30 22 C -1.732 -5.5 0.0 0
M  V30 23 C -1.732 -7.5 0.0 0
M  V30 24 C -0.866 -6.0 0.0 0
M  V30 25 C -0.866 -7.0 0.0 0
M  V30 26 O 0.0 -7.5 0.0 0
M  V30 27 C 0.866 -7.0 0.0 0
M  V30 28 C 1.732 -7.5 0.0 0
M  V30 29 C 0.866 -6.0 0.0 0
M  V30 30 C 2.598 -7.0 0.0 0
M  V30 31 C 1.732 -5.5 0.0 0
M  V30 32 C 2.598 -6.0 0.0 0
M  V30 END ATOM
M  V30 BEGIN BOND
M  V30 1 2 1 2
M  V30 2 1 2 3
M  V30 3 1 2 4
M  V30 4 1 4 5 CFG=1
M  V30 5 1 4 6
M  V30 6 1 5 7
M  V30 7 1 6 8
M  V30 8 2 8 9
M  V30 9 1 8 10
M  V30 10 1 9 11
M  V30 11 2 10 12
M  V30 12 2 11 13
M  V30 13 1 13 14
M  V30 14 3 14 15
M  V30 15 1 15 16
M  V30 16 1 16 17
M  V30 17 1 17 18
M  V30 18 1 18 19
M  V30 19 1 19 20
M  V30 20 2 20 21
M  V30 21 1 20 22
M  V30 22 1 21 23
M  V30 23 2 22 24
M  V30 24 2 23 25
M  V30 25 1 25 26
M  V30 26 1 26 27
M  V30 27 2 27 28
M  V30 28 1 27 29
M  V30 29 1 28 30
M  V30 30 2 29 31
M  V30 31 2 30 32
M  V30 32 1 12 13
M  V30 33 1 24 25
M  V30 34 1 31 32
M  V30 END BOND
M  V30 BEGIN COLLECTION
M  V30 MDLV30/STEABS ATOMS=(1 4)
M  V30 END COLLECTION
M  V30 END CTAB
M  END
>  <Molecule ChEMBL ID>
CHEMBL182230

>  <Smiles>
CO[C@@H](Cc1ccc(C#CCCCOc2ccc(Oc3ccccc3)cc2)cc1)C(=O)O

>  <IC50_nM>
7

>  <Assay Description>
Mean inhibitory concentration against human peroxisome proliferator-activated receptor gamma

$$$$
CHEMBL3678105
Actelion Java MolfileCreator 2.0

  0  0  0  0  0  0              0 V3000
M  V30 BEGIN CTAB
M  V30 COUNTS 34 38 0 0 0
M  V30 BEGIN ATOM
M  V30 1 S 10.9833 3.3901 0.0 0
M  V30 2 O 12.4099 2.9265 0.0 0
M  V30 3 O 12.098 4.3938 0.0 0
M  V30 4 N 10.5198 1.9635 0.0 0
M  V30 5 C 9.9796 4.5048 0.0 0
M  V30 6 C 9.0932 1.5 0.0 0
M  V30 7 C 11.4015 0.75 0.0 0
M  V30 8 C 10.4432 5.9314 0.0 0
M  V30 9 C 8.5124 4.1929 0.0 0
M  V30 10 C 9.0932 0.0 0.0 0
M  V30 11 C 7.7942 2.25 0.0 0
M  V30 12 C 10.5198 -0.4635 0.0 0
M  V30 13 C 9.4395 7.0461 0.0 0
M  V30 14 C 11.9104 6.2432 0.0 0
M  V30 15 C 7.5087 5.3076 0.0 0
M  V30 16 C 7.7942 -0.75 0.0 0
M  V30 17 C 6.4951 1.5 0.0 0
M  V30 18 C 7.9722 6.7342 0.0 0
M  V30 19 C 9.903 8.4727 0.0 0
M  V30 20 C 12.3739 7.6698 0.0 0
M  V30 21 C 6.4951 0.0 0.0 0
M  V30 22 C 11.3702 8.7845 0.0 0
M  V30 23 C 5.1961 -0.75 0.0 0
M  V30 24 O 5.1961 -2.25 0.0 0
M  V30 25 N 3.8971 0.0 0.0 0
M  V30 26 C 2.598 -0.75 0.0 0 CFG=2
M  V30 27 C 2.598 -2.25 0.0 0
M  V30 28 C 1.299 0.0 0.0 0
M  V30 29 C 1.299 -3.0 0.0 0
M  V30 30 C 3.8971 -3.0 0.0 0
M  V30 31 C 0.0 -0.75 0.0 0
M  V30 32 C 1.299 -4.5 0.0 0
M  V30 33 C 3.8971 -4.5 0.0 0
M  V30 34 C 2.598 -5.25 0.0 0
M  V30 END ATOM
M  V30 BEGIN BOND
M  V30 1 2 1 2
M  V30 2 2 1 3
M  V30 3 1 1 4
M  V30 4 1 1 5
M  V30 5 1 4 6
M  V30 6 1 4 7
M  V30 7 1 5 8
M  V30 8 2 5 9
M  V30 9 2 6 10
M  V30 10 1 6 11
M  V30 11 2 7 12
M  V30 12 1 8 13
M  V30 13 2 8 14
M  V30 14 1 9 15
M  V30 15 1 10 16
M  V30 16 2 11 17
M  V30 17 1 13 18
M  V30 18 2 13 19
M  V30 19 1 14 20
M  V30 20 2 16 21
M  V30 21 1 19 22
M  V30 22 1 21 23
M  V30 23 2 23 24
M  V30 24 1 23 25
M  V30 25 1 26 25 CFG=3
M  V30 26 1 26 27
M  V30 27 1 26 28
M  V30 28 2 27 29
M  V30 29 1 27 30
M  V30 30 1 28 31
M  V30 31 1 29 32
M  V30 32 2 30 33
M  V30 33 2 32 34
M  V30 34 1 10 12
M  V30 35 2 15 18
M  V30 36 1 17 21
M  V30 37 2 20 22
M  V30 38 1 33 34
M  V30 END BOND
M  V30 BEGIN COLLECTION
M  V30 MDLV30/STERAC1 ATOMS=(1 26)
M  V30 END COLLECTION
M  V30 END CTAB
M  END
>  <Molecule ChEMBL ID>
CHEMBL3678105

>  <Smiles>
CCC(NC(=O)c1ccc2c(ccn2S(=O)(=O)c2cccc3ccccc23)c1)c1ccccc1

>  <IC50_nM>
7

>  <Assay Description>
Lanthascreen Competitive Binding Assay: The assay was performed according to manufacturer protocol. A mixture of 5 nM GST-PPARG-LBD, 5 nM Tb-GST-antibody, 5 nM Fluormone Pan- PPAR Green, and serial dilutions of the experimental compound, beginning at 10 ׬� downwards, was added to wells of black 384-well low- volume plates (Greiner) to a total volume of 18 xL. All dilutions were made in TR-FRET assay buffer C. DMSO at 2% final concentration was used as a no-ligand control. Experiment was performed in triplicate, and incubated for 2 hours in the dark prior to assay read in Perkin Elmer ViewLux ultra HTS microplate reader. FRET signal was measured by excitation at 340 nm and emission at 520 nm for fluorescein and 490 nm for terbium.

$$$$
CHEMBL3695838
Actelion Java MolfileCreator 2.0

  0  0  0  0  0  0              0 V3000
M  V30 BEGIN CTAB
M  V30 COUNTS 39 43 0 0 0
M  V30 BEGIN ATOM
M  V30 1 O 11.8592 -3.5669 0.0 0
M  V30 2 C 10.8811 -3.7748 0.0 0
M  V30 3 O 10.212 -3.0316 0.0 0
M  V30 4 C 10.5721 -4.7258 0.0 0
M  V30 5 C 9.5939 -4.9337 0.0 0
M  V30 6 C 11.2412 -5.469 0.0 0
M  V30 7 C 8.9248 -4.1906 0.0 0
M  V30 8 C 9.2849 -5.8848 0.0 0
M  V30 9 C 10.9322 -6.42 0.0 0
M  V30 10 C 9.2338 -3.2395 0.0 0
M  V30 11 C 7.9466 -4.3985 0.0 0
M  V30 12 C 9.954 -6.6279 0.0 0
M  V30 13 C 8.5647 -2.4964 0.0 0
M  V30 14 C 7.2775 -3.6554 0.0 0
M  V30 15 C 7.5865 -2.7043 0.0 0
M  V30 16 C 6.9174 -1.9612 0.0 0
M  V30 17 N 5.9392 -2.1691 0.0 0
M  V30 18 C 5.1961 -1.4999 0.0 0
M  V30 19 C 5.5325 -3.0826 0.0 0
M  V30 20 C 4.3301 -1.9999 0.0 0
M  V30 21 C 5.1961 -0.4999 0.0 0
M  V30 22 C 4.538 -2.9781 0.0 0
M  V30 23 C 6.0325 -3.9487 0.0 0
M  V30 24 C 3.4641 -1.5 0.0 0
M  V30 25 C 4.3301 0.0 0.0 0
M  V30 26 C 3.8689 -3.7212 0.0 0
M  V30 27 C 3.4641 -0.5 0.0 0
M  V30 28 C 2.598 0.0 0.0 0
M  V30 29 O 2.598 1.0 0.0 0
M  V30 30 N 1.732 -0.5 0.0 0
M  V30 31 C 0.866 0.0 0.0 0
M  V30 32 C 0.0 -0.5 0.0 0
M  V30 33 C -0.866 0.0 0.0 0
M  V30 34 C 0.0 -1.4999 0.0 0
M  V30 35 C -1.732 -0.4999 0.0 0
M  V30 36 C -0.866 -1.9999 0.0 0
M  V30 37 C -1.732 -1.4999 0.0 0
M  V30 38 O -2.598 -1.9999 0.0 0
M  V30 39 C -2.598 -2.9999 0.0 0
M  V30 END ATOM
M  V30 BEGIN BOND
M  V30 1 2 1 2
M  V30 2 1 2 3
M  V30 3 1 2 4
M  V30 4 2 4 5
M  V30 5 1 4 6
M  V30 6 1 5 7
M  V30 7 1 5 8
M  V30 8 2 6 9
M  V30 9 2 7 10
M  V30 10 1 7 11
M  V30 11 2 8 12
M  V30 12 1 10 13
M  V30 13 2 11 14
M  V30 14 2 13 15
M  V30 15 1 15 16
M  V30 16 1 16 17
M  V30 17 1 17 18
M  V30 18 1 17 19
M  V30 19 2 18 20
M  V30 20 1 18 21
M  V30 21 2 19 22
M  V30 22 1 19 23
M  V30 23 1 20 24
M  V30 24 2 21 25
M  V30 25 1 22 26
M  V30 26 2 24 27
M  V30 27 1 27 28
M  V30 28 2 28 29
M  V30 29 1 28 30
M  V30 30 1 30 31
M  V30 31 1 31 32
M  V30 32 2 32 33
M  V30 33 1 32 34
M  V30 34 1 33 35
M  V30 35 2 34 36
M  V30 36 2 35 37
M  V30 37 1 37 38
M  V30 38 1 38 39
M  V30 39 1 9 12
M  V30 40 1 14 15
M  V30 41 1 20 22
M  V30 42 1 25 27
M  V30 43 1 36 37
M  V30 END BOND
M  V30 END CTAB
M  END
>  <Molecule ChEMBL ID>
CHEMBL3695838

>  <Smiles>
COc1ccc(CNC(=O)c2ccc3c(c2)c(C)c(C)n3Cc2ccc(-c3ccccc3C(=O)O)cc2)cc1

>  <IC50_nM>
7

>  <Assay Description>
Lanthascreen Competitive Binding Assay: The assay was performed according to manufacturer protocol. A mixture of nM GST-PPARG-LBD, 5 nM Tb-GST-antibody, 5 nM Fluormone Pan-PPAR Green, and serial dilutions of the experimental compound, beginning at 10 ׬M downwards, was added to wells of black 384-well low-volume plates (Greiner) to a total volume of 18 ׬L. All dilutions were made in TR-FRET assay buffer C. DMSO at 2% final concentration was used as a no-ligand control. Experiment was performed in triplicate, and incubated for 2 hours in the dark prior to assay read in Perkin Elmer ViewLux ultra HTS microplate reader. FRET signal was measured by excitation at 340 nm and emission at 520 nm for fluorescein and 490 nm for terbium. Fold change over DMSO was calculated using GraphPad Prism Software (La Jolla, Calif.) by calculating 520 nm/490 nm ratio. Graphs were plotted as fold change of FRET signal for compound treatment over DMSO-only control.

$$$$
CHEMBL485537
Actelion Java MolfileCreator 2.0

  0  0  0  0  0  0              0 V3000
M  V30 BEGIN CTAB
M  V30 COUNTS 32 35 0 0 0
M  V30 BEGIN ATOM
M  V30 1 S 5.3804 2.5036 0.0 0
M  V30 2 C 6.4951 1.5 0.0 0
M  V30 3 C 5.9905 3.874 0.0 0
M  V30 4 C 6.4951 0.0 0.0 0
M  V30 5 C 7.7942 2.25 0.0 0
M  V30 6 C 7.4823 3.7172 0.0 0
M  V30 7 C 7.7942 -0.7499 0.0 0
M  V30 8 C 5.1961 -0.75 0.0 0
M  V30 9 C 9.0932 1.4999 0.0 0
M  V30 10 C 9.0932 0.0 0.0 0
M  V30 11 C 5.1961 -2.25 0.0 0 CFG=2
M  V30 12 O 10.3923 2.2499 0.0 0
M  V30 13 O 3.8971 -3.0 0.0 0
M  V30 14 C 6.4951 -3.0 0.0 0
M  V30 15 C 10.3923 3.75 0.0 0
M  V30 16 C 3.8971 -4.5 0.0 0
M  V30 17 O 7.7942 -2.25 0.0 0
M  V30 18 O 6.4951 -4.5 0.0 0
M  V30 19 C 11.6913 4.5 0.0 0
M  V30 20 C 2.598 -5.25 0.0 0
M  V30 21 C 11.6913 6.0 0.0 0
M  V30 22 N 12.9048 6.8816 0.0 0
M  V30 23 C 10.4778 6.8816 0.0 0
M  V30 24 C 12.4413 8.3082 0.0 0
M  V30 25 O 10.9413 8.3082 0.0 0
M  V30 26 C 9.0512 6.4181 0.0 0
M  V30 27 C 13.323 9.5217 0.0 0
M  V30 28 C 14.8148 9.3649 0.0 0
M  V30 29 C 12.7129 10.8921 0.0 0
M  V30 30 C 15.6964 10.5785 0.0 0
M  V30 31 C 13.5945 12.1056 0.0 0
M  V30 32 C 15.0863 11.9488 0.0 0
M  V30 END ATOM
M  V30 BEGIN BOND
M  V30 1 1 1 2
M  V30 2 1 1 3
M  V30 3 2 2 4
M  V30 4 1 2 5
M  V30 5 2 3 6
M  V30 6 1 4 7
M  V30 7 1 4 8
M  V30 8 2 5 9
M  V30 9 2 7 10
M  V30 10 1 8 11
M  V30 11 1 9 12
M  V30 12 1 11 13 CFG=1
M  V30 13 1 11 14
M  V30 14 1 12 15
M  V30 15 1 13 16
M  V30 16 2 14 17
M  V30 17 1 14 18
M  V30 18 1 15 19
M  V30 19 1 16 20
M  V30 20 1 19 21
M  V30 21 1 21 22
M  V30 22 2 21 23
M  V30 23 2 22 24
M  V30 24 1 23 25
M  V30 25 1 23 26
M  V30 26 1 24 27
M  V30 27 2 27 28
M  V30 28 1 27 29
M  V30 29 1 28 30
M  V30 30 2 29 31
M  V30 31 2 30 32
M  V30 32 1 5 6
M  V30 33 1 9 10
M  V30 34 1 24 25
M  V30 35 1 31 32
M  V30 END BOND
M  V30 BEGIN COLLECTION
M  V30 MDLV30/STERAC1 ATOMS=(1 11)
M  V30 END COLLECTION
M  V30 END CTAB
M  END
>  <Molecule ChEMBL ID>
CHEMBL485537

>  <Smiles>
CCOC(Cc1ccc(OCCc2nc(-c3ccccc3)oc2C)c2ccsc12)C(=O)O

>  <IC50_nM>
7

>  <Assay Description>
Displacement of radio labeled 2(S)-(2-benzoyl-phenylamino)-3-{4-[1,1-ditritio-2-(5-methyl-2-phenyl-oxazol-4-yl)-ethoxy]-phenyl}-propionic acid from GST-fused human PPARgamma expressed in Escherichia coli BL21 cells by scintillation proximity assay

$$$$
CHEMBL519974
Actelion Java MolfileCreator 2.0

  0  0  0  0  0  0              0 V3000
M  V30 BEGIN CTAB
M  V30 COUNTS 34 37 0 0 0
M  V30 BEGIN ATOM
M  V30 1 O 7.7942 -0.75 0.0 0
M  V30 2 C 6.4951 0.0 0.0 0
M  V30 3 O 6.4951 1.5 0.0 0
M  V30 4 C 5.1961 -0.75 0.0 0 CFG=1
M  V30 5 O 3.8971 0.0 0.0 0
M  V30 6 C 5.1961 -2.25 0.0 0
M  V30 7 C 2.598 -0.75 0.0 0
M  V30 8 C 6.4951 -3.0 0.0 0
M  V30 9 C 1.299 0.0 0.0 0
M  V30 10 C 6.4951 -4.5 0.0 0
M  V30 11 C 7.7942 -2.25 0.0 0
M  V30 12 C 0.0 -0.75 0.0 0
M  V30 13 C 7.7942 -5.25 0.0 0
M  V30 14 C 5.1961 -5.25 0.0 0
M  V30 15 C 9.0932 -3.0 0.0 0
M  V30 16 C 9.0932 -4.5 0.0 0
M  V30 17 C 7.7942 -6.75 0.0 0
M  V30 18 C 5.1961 -6.75 0.0 0
M  V30 19 O 10.3923 -5.25 0.0 0
M  V30 20 C 6.4951 -7.5 0.0 0
M  V30 21 C 11.6913 -4.5 0.0 0
M  V30 22 C 12.9903 -5.25 0.0 0
M  V30 23 C 14.2894 -4.5 0.0 0
M  V30 24 N 15.6597 -5.1101 0.0 0
M  V30 25 C 14.4462 -3.0082 0.0 0
M  V30 26 C 16.6634 -3.9953 0.0 0
M  V30 27 O 15.9134 -2.6963 0.0 0
M  V30 28 C 13.3314 -2.0045 0.0 0
M  V30 29 C 18.1552 -4.1521 0.0 0
M  V30 30 C 18.7653 -5.5224 0.0 0
M  V30 31 C 19.0368 -2.9386 0.0 0
M  V30 32 C 20.2571 -5.6792 0.0 0
M  V30 33 C 20.5286 -3.0954 0.0 0
M  V30 34 C 21.1387 -4.4657 0.0 0
M  V30 END ATOM
M  V30 BEGIN BOND
M  V30 1 2 1 2
M  V30 2 1 2 3
M  V30 3 1 2 4
M  V30 4 1 4 5 CFG=3
M  V30 5 1 4 6
M  V30 6 1 5 7
M  V30 7 1 6 8
M  V30 8 1 7 9
M  V30 9 1 8 10
M  V30 10 2 8 11
M  V30 11 1 9 12
M  V30 12 1 10 13
M  V30 13 2 10 14
M  V30 14 1 11 15
M  V30 15 1 13 16
M  V30 16 2 13 17
M  V30 17 1 14 18
M  V30 18 1 16 19
M  V30 19 1 17 20
M  V30 20 1 19 21
M  V30 21 1 21 22
M  V30 22 1 22 23
M  V30 23 1 23 24
M  V30 24 2 23 25
M  V30 25 2 24 26
M  V30 26 1 25 27
M  V30 27 1 25 28
M  V30 28 1 26 29
M  V30 29 2 29 30
M  V30 30 1 29 31
M  V30 31 1 30 32
M  V30 32 2 31 33
M  V30 33 2 32 34
M  V30 34 2 15 16
M  V30 35 2 18 20
M  V30 36 1 26 27
M  V30 37 1 33 34
M  V30 END BOND
M  V30 BEGIN COLLECTION
M  V30 MDLV30/STERAC1 ATOMS=(1 4)
M  V30 END COLLECTION
M  V30 END CTAB
M  END
>  <Molecule ChEMBL ID>
CHEMBL519974

>  <Smiles>
CCCOC(Cc1ccc(OCCc2nc(-c3ccccc3)oc2C)c2ccccc12)C(=O)O

>  <IC50_nM>
7

>  <Assay Description>
Displacement of radio labeled 2(S)-(2-benzoyl-phenylamino)-3-{4-[1,1-ditritio-2-(5-methyl-2-phenyl-oxazol-4-yl)-ethoxy]-phenyl}-propionic acid from GST-fused human PPARgamma expressed in Escherichia coli BL21 cells by scintillation proximity assay

$$$$
CHEMBL218231
Actelion Java MolfileCreator 2.0

  0  0  0  0  0  0              0 V3000
M  V30 BEGIN CTAB
M  V30 COUNTS 41 45 0 0 0
M  V30 BEGIN ATOM
M  V30 1 S 3.8971 0.0 0.0 0
M  V30 2 O 4.6471 1.299 0.0 0
M  V30 3 O 3.1471 1.299 0.0 0
M  V30 4 N 2.598 -0.75 0.0 0
M  V30 5 C 5.1961 -0.75 0.0 0
M  V30 6 C 1.299 0.0 0.0 0
M  V30 7 C 5.1961 -2.25 0.0 0
M  V30 8 C 6.4951 0.0 0.0 0
M  V30 9 O 1.299 1.5 0.0 0
M  V30 10 C 0.0 -0.75 0.0 0
M  V30 11 C 6.4951 -3.0 0.0 0
M  V30 12 C 7.7942 -0.75 0.0 0
M  V30 13 N -1.3703 -0.1398 0.0 0
M  V30 14 C -0.1567 -2.2417 0.0 0
M  V30 15 C 7.7942 -2.25 0.0 0
M  V30 16 C -2.374 -1.2546 0.0 0
M  V30 17 C -1.6821 1.3273 0.0 0
M  V30 18 C 0.9579 -3.2454 0.0 0
M  V30 19 C -1.624 -2.5536 0.0 0
M  V30 20 F 9.0932 -3.0 0.0 0
M  V30 21 C -3.874 -1.2546 0.0 0
M  V30 22 C -3.1087 1.7908 0.0 0
M  V30 23 C 0.646 -4.7127 0.0 0
M  V30 24 C 2.3845 -2.7819 0.0 0
M  V30 25 C -2.374 -3.8526 0.0 0
M  V30 26 C -4.624 -2.5536 0.0 0
M  V30 27 C -3.4206 3.258 0.0 0
M  V30 28 C -4.2234 0.7871 0.0 0
M  V30 29 C 1.7607 -5.7164 0.0 0
M  V30 30 C 3.4992 -3.7856 0.0 0
M  V30 31 C -3.874 -3.8526 0.0 0
M  V30 32 C -4.8472 3.7216 0.0 0
M  V30 33 C -5.65 1.2506 0.0 0
M  V30 34 C 3.1873 -5.2528 0.0 0
M  V30 35 C -5.9619 2.7179 0.0 0
M  V30 36 C -5.159 5.1888 0.0 0
M  V30 37 O 4.302 -6.2565 0.0 0
M  V30 38 F -6.6263 4.8769 0.0 0
M  V30 39 F -5.4709 6.656 0.0 0
M  V30 40 F -3.6918 5.5006 0.0 0
M  V30 41 C 5.7286 -5.793 0.0 0
M  V30 END ATOM
M  V30 BEGIN BOND
M  V30 1 2 1 2
M  V30 2 2 1 3
M  V30 3 1 1 4
M  V30 4 1 1 5
M  V30 5 1 4 6
M  V30 6 2 5 7
M  V30 7 1 5 8
M  V30 8 2 6 9
M  V30 9 1 6 10
M  V30 10 1 7 11
M  V30 11 2 8 12
M  V30 12 1 10 13
M  V30 13 2 10 14
M  V30 14 2 11 15
M  V30 15 1 13 16
M  V30 16 1 13 17
M  V30 17 1 14 18
M  V30 18 1 14 19
M  V30 19 1 15 20
M  V30 20 1 16 21
M  V30 21 1 17 22
M  V30 22 2 18 23
M  V30 23 1 18 24
M  V30 24 1 19 25
M  V30 25 2 21 26
M  V30 26 2 22 27
M  V30 27 1 22 28
M  V30 28 1 23 29
M  V30 29 2 24 30
M  V30 30 2 25 31
M  V30 31 1 27 32
M  V30 32 2 28 33
M  V30 33 2 29 34
M  V30 34 2 32 35
M  V30 35 1 32 36
M  V30 36 1 34 37
M  V30 37 1 36 38
M  V30 38 1 36 39
M  V30 39 1 36 40
M  V30 40 1 37 41
M  V30 41 1 12 15
M  V30 42 2 16 19
M  V30 43 1 26 31
M  V30 44 1 30 34
M  V30 45 1 33 35
M  V30 END BOND
M  V30 END CTAB
M  END
>  <Molecule ChEMBL ID>
CHEMBL218231

>  <Smiles>
COc1ccc(-c2c(C(=O)NS(=O)(=O)c3ccc(F)cc3)n(Cc3cccc(C(F)(F)F)c3)c3ccccc23)cc1

>  <IC50_nM>
7

>  <Assay Description>
Displacement of Fluormone from PPAR gamma

$$$$
CHEMBL491142
Actelion Java MolfileCreator 2.0

  0  0  0  0  0  0              0 V3000
M  V30 BEGIN CTAB
M  V30 COUNTS 37 41 0 0 0
M  V30 BEGIN ATOM
M  V30 1 O 8.9812 -1.9916 0.0 0
M  V30 2 C 8.0301 -2.3006 0.0 0
M  V30 3 O 7.287 -1.6314 0.0 0
M  V30 4 C 7.8222 -3.2787 0.0 0
M  V30 5 C 6.8711 -3.5877 0.0 0
M  V30 6 N 6.5621 -4.5388 0.0 0
M  V30 7 C 6.0621 -2.9999 0.0 0
M  V30 8 N 5.5621 -4.5388 0.0 0
M  V30 9 N 5.2531 -3.5877 0.0 0
M  V30 10 C 6.0621 -1.9999 0.0 0
M  V30 11 C 4.9743 -5.3478 0.0 0
M  V30 12 C 5.1961 -1.4999 0.0 0
M  V30 13 C 5.3811 -6.2614 0.0 0
M  V30 14 C 3.9798 -5.2433 0.0 0
M  V30 15 C 5.1961 -0.5 0.0 0
M  V30 16 C 4.3301 -1.9999 0.0 0
M  V30 17 C 4.7933 -7.0704 0.0 0
M  V30 18 C 3.392 -6.0523 0.0 0
M  V30 19 C 4.3301 0.0 0.0 0
M  V30 20 C 3.4641 -1.5 0.0 0
M  V30 21 C 3.7988 -6.9658 0.0 0
M  V30 22 C 3.4641 -0.5 0.0 0
M  V30 23 O 2.598 0.0 0.0 0
M  V30 24 C 1.732 -0.5 0.0 0
M  V30 25 C 0.866 0.0 0.0 0
M  V30 26 C 0.0 -0.5 0.0 0
M  V30 27 N -0.9135 -0.0932 0.0 0
M  V30 28 C -0.1045 -1.4945 0.0 0
M  V30 29 C -1.5826 -0.8364 0.0 0
M  V30 30 O -1.0826 -1.7024 0.0 0
M  V30 31 C 0.6386 -2.1636 0.0 0
M  V30 32 C -2.5771 -0.7318 0.0 0
M  V30 33 C -2.9839 0.1816 0.0 0
M  V30 34 C -3.1649 -1.5408 0.0 0
M  V30 35 C -3.9784 0.2861 0.0 0
M  V30 36 C -4.1595 -1.4363 0.0 0
M  V30 37 C -4.5662 -0.5228 0.0 0
M  V30 END ATOM
M  V30 BEGIN BOND
M  V30 1 2 1 2
M  V30 2 1 2 3
M  V30 3 1 2 4
M  V30 4 1 4 5
M  V30 5 2 5 6
M  V30 6 1 5 7
M  V30 7 1 6 8
M  V30 8 2 7 9
M  V30 9 1 7 10
M  V30 10 1 8 11
M  V30 11 1 10 12
M  V30 12 2 11 13
M  V30 13 1 11 14
M  V30 14 2 12 15
M  V30 15 1 12 16
M  V30 16 1 13 17
M  V30 17 2 14 18
M  V30 18 1 15 19
M  V30 19 2 16 20
M  V30 20 2 17 21
M  V30 21 2 19 22
M  V30 22 1 22 23
M  V30 23 1 23 24
M  V30 24 1 24 25
M  V30 25 1 25 26
M  V30 26 1 26 27
M  V30 27 2 26 28
M  V30 28 2 27 29
M  V30 29 1 28 30
M  V30 30 1 28 31
M  V30 31 1 29 32
M  V30 32 2 32 33
M  V30 33 1 32 34
M  V30 34 1 33 35
M  V30 35 2 34 36
M  V30 36 2 35 37
M  V30 37 1 8 9
M  V30 38 1 18 21
M  V30 39 1 20 22
M  V30 40 1 29 30
M  V30 41 1 36 37
M  V30 END BOND
M  V30 END CTAB
M  END
>  <Molecule ChEMBL ID>
CHEMBL491142

>  <Smiles>
Cc1oc(-c2ccccc2)nc1CCOc1ccc(Cc2nn(-c3ccccc3)nc2CC(=O)O)cc1

>  <IC50_nM>
7

>  <Assay Description>
Binding affinity to PPARgamma by fluorescence polarization assay

$$$$
CHEMBL3695883
Actelion Java MolfileCreator 2.0

  0  0  0  0  0  0              0 V3000
M  V30 BEGIN CTAB
M  V30 COUNTS 36 40 0 0 0
M  V30 BEGIN ATOM
M  V30 1 F 4.3301 0.9999 0.0 0
M  V30 2 C 4.3301 0.0 0.0 0
M  V30 3 C 3.4641 -0.5 0.0 0
M  V30 4 C 5.1961 -0.5 0.0 0
M  V30 5 C 3.4641 -1.5 0.0 0
M  V30 6 C 2.598 0.0 0.0 0 CFG=1
M  V30 7 C 5.1961 -1.5 0.0 0
M  V30 8 C 4.3301 -2.0 0.0 0
M  V30 9 N 1.732 -0.5 0.0 0
M  V30 10 C 2.598 1.0 0.0 0
M  V30 11 C 0.866 0.0 0.0 0
M  V30 12 O 0.866 1.0 0.0 0
M  V30 13 C 0.0 -0.5 0.0 0
M  V30 14 C 0.0 -1.4999 0.0 0
M  V30 15 C -0.866 0.0 0.0 0
M  V30 16 C -0.866 -1.9999 0.0 0
M  V30 17 C -1.732 -0.4999 0.0 0
M  V30 18 C -1.732 -1.4999 0.0 0
M  V30 19 C -1.0739 -2.9781 0.0 0
M  V30 20 N -2.4751 -2.1691 0.0 0
M  V30 21 C -2.0684 -3.0826 0.0 0
M  V30 22 C -0.4048 -3.7212 0.0 0
M  V30 23 C -3.4533 -1.9612 0.0 0
M  V30 24 C -2.5684 -3.9487 0.0 0
M  V30 25 C -4.1224 -2.7043 0.0 0
M  V30 26 C -5.1006 -2.4964 0.0 0
M  V30 27 C -3.8134 -3.6554 0.0 0
M  V30 28 C -5.7697 -3.2395 0.0 0
M  V30 29 C -4.4825 -4.3985 0.0 0
M  V30 30 C -5.4607 -4.1906 0.0 0
M  V30 31 C -6.1298 -4.9337 0.0 0
M  V30 32 C -7.108 -4.7258 0.0 0
M  V30 33 C -5.8208 -5.8848 0.0 0
M  V30 34 C -7.7771 -5.469 0.0 0
M  V30 35 C -6.4899 -6.6279 0.0 0
M  V30 36 C -7.4681 -6.42 0.0 0
M  V30 END ATOM
M  V30 BEGIN BOND
M  V30 1 1 1 2
M  V30 2 2 2 3
M  V30 3 1 2 4
M  V30 4 1 3 5
M  V30 5 1 3 6
M  V30 6 2 4 7
M  V30 7 2 5 8
M  V30 8 1 6 9
M  V30 9 1 6 10 CFG=1
M  V30 10 1 9 11
M  V30 11 2 11 12
M  V30 12 1 11 13
M  V30 13 2 13 14
M  V30 14 1 13 15
M  V30 15 1 14 16
M  V30 16 2 15 17
M  V30 17 2 16 18
M  V30 18 1 16 19
M  V30 19 1 18 20
M  V30 20 2 19 21
M  V30 21 1 19 22
M  V30 22 1 20 23
M  V30 23 1 21 24
M  V30 24 1 23 25
M  V30 25 2 25 26
M  V30 26 1 25 27
M  V30 27 1 26 28
M  V30 28 2 27 29
M  V30 29 2 28 30
M  V30 30 1 30 31
M  V30 31 2 31 32
M  V30 32 1 31 33
M  V30 33 1 32 34
M  V30 34 2 33 35
M  V30 35 2 34 36
M  V30 36 1 7 8
M  V30 37 1 17 18
M  V30 38 1 20 21
M  V30 39 1 29 30
M  V30 40 1 35 36
M  V30 END BOND
M  V30 BEGIN COLLECTION
M  V30 MDLV30/STEABS ATOMS=(1 6)
M  V30 END COLLECTION
M  V30 END CTAB
M  END
>  <Molecule ChEMBL ID>
CHEMBL3695883

>  <Smiles>
Cc1c(C)n(Cc2ccc(-c3ccccc3)cc2)c2ccc(C(=O)N[C@@H](C)c3ccccc3F)cc12

>  <IC50_nM>
7

>  <Assay Description>
Lanthascreen Competitive Binding Assay: The assay was performed according to manufacturer protocol. A mixture of nM GST-PPARG-LBD, 5 nM Tb-GST-antibody, 5 nM Fluormone Pan-PPAR Green, and serial dilutions of the experimental compound, beginning at 10 ׬M downwards, was added to wells of black 384-well low-volume plates (Greiner) to a total volume of 18 ׬L. All dilutions were made in TR-FRET assay buffer C. DMSO at 2% final concentration was used as a no-ligand control. Experiment was performed in triplicate, and incubated for 2 hours in the dark prior to assay read in Perkin Elmer ViewLux ultra HTS microplate reader. FRET signal was measured by excitation at 340 nm and emission at 520 nm for fluorescein and 490 nm for terbium. Fold change over DMSO was calculated using GraphPad Prism Software (La Jolla, Calif.) by calculating 520 nm/490 nm ratio. Graphs were plotted as fold change of FRET signal for compound treatment over DMSO-only control.

$$$$
CHEMBL237085
Actelion Java MolfileCreator 2.0

  0  0  0  0  0  0              0 V3000
M  V30 BEGIN CTAB
M  V30 COUNTS 37 39 0 0 0
M  V30 BEGIN ATOM
M  V30 1 F 9.8432 -1.7009 0.0 0
M  V30 2 C 9.0932 -3.0 0.0 0
M  V30 3 F 10.3923 -3.75 0.0 0
M  V30 4 F 8.3432 -4.299 0.0 0
M  V30 5 C 7.7942 -2.25 0.0 0
M  V30 6 C 7.7942 -0.75 0.0 0
M  V30 7 C 6.4951 -3.0 0.0 0
M  V30 8 C 6.4951 0.0 0.0 0
M  V30 9 C 5.1961 -2.25 0.0 0
M  V30 10 O 6.4951 1.5 0.0 0
M  V30 11 C 5.1961 -0.75 0.0 0
M  V30 12 C 5.1961 2.25 0.0 0
M  V30 13 C 3.8971 0.0 0.0 0
M  V30 14 O 3.8971 1.5 0.0 0
M  V30 15 N 2.598 -0.75 0.0 0
M  V30 16 C 1.299 0.0 0.0 0
M  V30 17 C 0.0 -0.75 0.0 0
M  V30 18 C -1.299 0.0 0.0 0
M  V30 19 C 0.0 -2.25 0.0 0
M  V30 20 C -2.598 -0.75 0.0 0
M  V30 21 C -1.299 -3.0 0.0 0
M  V30 22 O -3.8971 0.0 0.0 0
M  V30 23 C -2.598 -2.25 0.0 0
M  V30 24 C -5.1961 -0.75 0.0 0
M  V30 25 C -6.4951 0.0 0.0 0
M  V30 26 C -5.1961 -2.25 0.0 0
M  V30 27 C -7.7942 -0.75 0.0 0
M  V30 28 C -6.4951 -3.0 0.0 0
M  V30 29 C -7.7942 -2.25 0.0 0
M  V30 30 C -9.0932 0.0 0.0 0
M  V30 31 O -9.0932 -3.0 0.0 0
M  V30 32 C -9.0932 -4.5 0.0 0
M  V30 33 C -10.3923 -5.25 0.0 0
M  V30 34 C -8.3433 -5.799 0.0 0
M  V30 35 C -7.5933 -4.4999 0.0 0
M  V30 36 O -11.6913 -4.5 0.0 0
M  V30 37 O -10.3923 -6.75 0.0 0
M  V30 END ATOM
M  V30 BEGIN BOND
M  V30 1 1 1 2
M  V30 2 1 2 3
M  V30 3 1 2 4
M  V30 4 1 2 5
M  V30 5 2 5 6
M  V30 6 1 5 7
M  V30 7 1 6 8
M  V30 8 2 7 9
M  V30 9 1 8 10
M  V30 10 2 8 11
M  V30 11 1 10 12
M  V30 12 1 11 13
M  V30 13 2 13 14
M  V30 14 1 13 15
M  V30 15 1 15 16
M  V30 16 1 16 17
M  V30 17 2 17 18
M  V30 18 1 17 19
M  V30 19 1 18 20
M  V30 20 2 19 21
M  V30 21 1 20 22
M  V30 22 2 20 23
M  V30 23 1 22 24
M  V30 24 2 24 25
M  V30 25 1 24 26
M  V30 26 1 25 27
M  V30 27 2 26 28
M  V30 28 2 27 29
M  V30 29 1 27 30
M  V30 30 1 29 31
M  V30 31 1 31 32
M  V30 32 1 32 33
M  V30 33 1 32 34
M  V30 34 1 32 35
M  V30 35 2 33 36
M  V30 36 1 33 37
M  V30 37 1 9 11
M  V30 38 1 21 23
M  V30 39 1 28 29
M  V30 END BOND
M  V30 END CTAB
M  END
>  <Molecule ChEMBL ID>
CHEMBL237085

>  <Smiles>
COc1cc(C(F)(F)F)ccc1C(=O)NCc1cccc(Oc2ccc(OC(C)(C)C(=O)O)c(C)c2)c1

>  <IC50_nM>
7

>  <Assay Description>
Displacement of [3H]2-methyl-2-(4-{3-{propyl-(5-pyridin-2-yl-thiophene-2-sulfonyl)-amino}-propyl}-phenoxy)-propionic acid from human PPARgamma

$$$$
CHEMBL217962
Actelion Java MolfileCreator 2.0

  0  0  0  0  0  0              0 V3000
M  V30 BEGIN CTAB
M  V30 COUNTS 41 45 0 0 0
M  V30 BEGIN ATOM
M  V30 1 S 2.598 2.25 0.0 0
M  V30 2 O 4.098 2.25 0.0 0
M  V30 3 O 3.348 0.9509 0.0 0
M  V30 4 N 1.299 1.5 0.0 0
M  V30 5 C 2.598 3.75 0.0 0
M  V30 6 C 1.299 0.0 0.0 0
M  V30 7 C 1.299 4.5 0.0 0
M  V30 8 C 3.8971 4.5 0.0 0
M  V30 9 O 2.598 -0.75 0.0 0
M  V30 10 C 0.0 -0.75 0.0 0
M  V30 11 C 1.299 6.0 0.0 0
M  V30 12 C 0.0 3.75 0.0 0
M  V30 13 C 3.8971 6.0 0.0 0
M  V30 14 N -1.3703 -0.1398 0.0 0
M  V30 15 C -0.1567 -2.2417 0.0 0
M  V30 16 C 2.598 6.75 0.0 0
M  V30 17 C -2.374 -1.2546 0.0 0
M  V30 18 C -1.6821 1.3273 0.0 0
M  V30 19 C 0.9579 -3.2454 0.0 0
M  V30 20 C -1.624 -2.5536 0.0 0
M  V30 21 C -3.874 -1.2546 0.0 0
M  V30 22 C -3.1087 1.7908 0.0 0
M  V30 23 C 0.646 -4.7127 0.0 0
M  V30 24 C 2.3845 -2.7819 0.0 0
M  V30 25 C -2.374 -3.8526 0.0 0
M  V30 26 C -4.624 -2.5536 0.0 0
M  V30 27 C -3.4206 3.258 0.0 0
M  V30 28 C -4.2234 0.7871 0.0 0
M  V30 29 C 1.7607 -5.7164 0.0 0
M  V30 30 C 3.4992 -3.7856 0.0 0
M  V30 31 C -3.874 -3.8526 0.0 0
M  V30 32 C -4.8472 3.7216 0.0 0
M  V30 33 C -5.65 1.2506 0.0 0
M  V30 34 C 3.1873 -5.2528 0.0 0
M  V30 35 C -5.9619 2.7179 0.0 0
M  V30 36 C -5.159 5.1888 0.0 0
M  V30 37 O 4.302 -6.2565 0.0 0
M  V30 38 F -6.6263 4.8769 0.0 0
M  V30 39 F -5.4709 6.656 0.0 0
M  V30 40 F -3.6918 5.5006 0.0 0
M  V30 41 C 5.7286 -5.793 0.0 0
M  V30 END ATOM
M  V30 BEGIN BOND
M  V30 1 2 1 2
M  V30 2 2 1 3
M  V30 3 1 1 4
M  V30 4 1 1 5
M  V30 5 1 4 6
M  V30 6 2 5 7
M  V30 7 1 5 8
M  V30 8 2 6 9
M  V30 9 1 6 10
M  V30 10 1 7 11
M  V30 11 1 7 12
M  V30 12 2 8 13
M  V30 13 1 10 14
M  V30 14 2 10 15
M  V30 15 2 11 16
M  V30 16 1 14 17
M  V30 17 1 14 18
M  V30 18 1 15 19
M  V30 19 1 15 20
M  V30 20 1 17 21
M  V30 21 1 18 22
M  V30 22 2 19 23
M  V30 23 1 19 24
M  V30 24 1 20 25
M  V30 25 2 21 26
M  V30 26 2 22 27
M  V30 27 1 22 28
M  V30 28 1 23 29
M  V30 29 2 24 30
M  V30 30 2 25 31
M  V30 31 1 27 32
M  V30 32 2 28 33
M  V30 33 2 29 34
M  V30 34 2 32 35
M  V30 35 1 32 36
M  V30 36 1 34 37
M  V30 37 1 36 38
M  V30 38 1 36 39
M  V30 39 1 36 40
M  V30 40 1 37 41
M  V30 41 1 13 16
M  V30 42 2 17 20
M  V30 43 1 26 31
M  V30 44 1 30 34
M  V30 45 1 33 35
M  V30 END BOND
M  V30 END CTAB
M  END
>  <Molecule ChEMBL ID>
CHEMBL217962

>  <Smiles>
COc1ccc(-c2c(C(=O)NS(=O)(=O)c3ccccc3C)n(Cc3cccc(C(F)(F)F)c3)c3ccccc23)cc1

>  <IC50_nM>
7

>  <Assay Description>
Displacement of Fluormone from PPAR gamma

$$$$
CHEMBL3678090
Actelion Java MolfileCreator 2.0

  0  0  0  0  0  0              0 V3000
M  V30 BEGIN CTAB
M  V30 COUNTS 27 30 0 0 0
M  V30 BEGIN ATOM
M  V30 1 S 4.3776 -0.0932 0.0 0
M  V30 2 C 3.4641 -0.5 0.0 0
M  V30 3 C 5.0467 -0.8364 0.0 0
M  V30 4 C 3.5686 -1.4945 0.0 0
M  V30 5 C 2.598 0.0 0.0 0
M  V30 6 C 4.5467 -1.7024 0.0 0
M  V30 7 N 1.732 -0.5 0.0 0
M  V30 8 C 0.866 0.0 0.0 0
M  V30 9 O 0.866 1.0 0.0 0
M  V30 10 C 0.0 -0.5 0.0 0
M  V30 11 C 0.0 -1.4999 0.0 0
M  V30 12 C -0.866 0.0 0.0 0
M  V30 13 C -0.866 -1.9999 0.0 0
M  V30 14 C -1.732 -0.4999 0.0 0
M  V30 15 C -1.732 -1.4999 0.0 0
M  V30 16 C -1.0739 -2.9781 0.0 0
M  V30 17 N -2.4751 -2.1691 0.0 0
M  V30 18 C -2.0684 -3.0826 0.0 0
M  V30 19 C -3.4533 -1.9612 0.0 0
M  V30 20 C -4.1224 -2.7043 0.0 0
M  V30 21 C -5.1006 -2.4964 0.0 0
M  V30 22 C -3.8134 -3.6554 0.0 0
M  V30 23 F -5.4096 -1.5453 0.0 0
M  V30 24 C -5.7697 -3.2395 0.0 0
M  V30 25 C -4.4825 -4.3985 0.0 0
M  V30 26 C -5.4607 -4.1906 0.0 0
M  V30 27 F -6.1298 -4.9337 0.0 0
M  V30 END ATOM
M  V30 BEGIN BOND
M  V30 1 1 1 2
M  V30 2 1 1 3
M  V30 3 2 2 4
M  V30 4 1 2 5
M  V30 5 2 3 6
M  V30 6 1 5 7
M  V30 7 1 7 8
M  V30 8 2 8 9
M  V30 9 1 8 10
M  V30 10 2 10 11
M  V30 11 1 10 12
M  V30 12 1 11 13
M  V30 13 2 12 14
M  V30 14 2 13 15
M  V30 15 1 13 16
M  V30 16 1 15 17
M  V30 17 2 16 18
M  V30 18 1 17 19
M  V30 19 1 19 20
M  V30 20 2 20 21
M  V30 21 1 20 22
M  V30 22 1 21 23
M  V30 23 1 21 24
M  V30 24 2 22 25
M  V30 25 2 24 26
M  V30 26 1 26 27
M  V30 27 1 4 6
M  V30 28 1 14 15
M  V30 29 1 17 18
M  V30 30 1 25 26
M  V30 END BOND
M  V30 END CTAB
M  END
>  <Molecule ChEMBL ID>
CHEMBL3678090

>  <Smiles>
O=C(NCc1cccs1)c1ccc2c(ccn2Cc2ccc(F)cc2F)c1

>  <IC50_nM>
7

>  <Assay Description>
Lanthascreen Competitive Binding Assay: The assay was performed according to manufacturer protocol. A mixture of 5 nM GST-PPARG-LBD, 5 nM Tb-GST-antibody, 5 nM Fluormone Pan- PPAR Green, and serial dilutions of the experimental compound, beginning at 10 ׬� downwards, was added to wells of black 384-well low- volume plates (Greiner) to a total volume of 18 xL. All dilutions were made in TR-FRET assay buffer C. DMSO at 2% final concentration was used as a no-ligand control. Experiment was performed in triplicate, and incubated for 2 hours in the dark prior to assay read in Perkin Elmer ViewLux ultra HTS microplate reader. FRET signal was measured by excitation at 340 nm and emission at 520 nm for fluorescein and 490 nm for terbium.

$$$$
CHEMBL3699390
Actelion Java MolfileCreator 2.0

  0  0  0  0  0  0              0 V3000
M  V30 BEGIN CTAB
M  V30 COUNTS 44 49 0 0 0
M  V30 BEGIN ATOM
M  V30 1 O 10.5721 -1.2057 0.0 0
M  V30 2 C 10.8811 -2.1567 0.0 0
M  V30 3 O 10.2933 -2.9658 0.0 0
M  V30 4 N 11.8321 -2.4658 0.0 0
M  V30 5 C 10.8811 -3.7748 0.0 0
M  V30 6 N 11.8321 -3.4658 0.0 0
M  V30 7 C 10.5721 -4.7258 0.0 0
M  V30 8 C 9.5939 -4.9337 0.0 0
M  V30 9 C 11.2412 -5.469 0.0 0
M  V30 10 C 8.9248 -4.1906 0.0 0
M  V30 11 C 9.2849 -5.8848 0.0 0
M  V30 12 C 10.9322 -6.42 0.0 0
M  V30 13 C 9.2338 -3.2395 0.0 0
M  V30 14 C 7.9466 -4.3985 0.0 0
M  V30 15 C 9.954 -6.6279 0.0 0
M  V30 16 C 8.5647 -2.4964 0.0 0
M  V30 17 C 7.2775 -3.6554 0.0 0
M  V30 18 C 7.5865 -2.7043 0.0 0
M  V30 19 C 6.9174 -1.9612 0.0 0
M  V30 20 N 5.9392 -2.1691 0.0 0
M  V30 21 C 5.1961 -1.4999 0.0 0
M  V30 22 C 5.5325 -3.0826 0.0 0
M  V30 23 C 4.3301 -1.9999 0.0 0
M  V30 24 C 5.1961 -0.4999 0.0 0
M  V30 25 C 4.538 -2.9781 0.0 0
M  V30 26 C 6.0325 -3.9487 0.0 0
M  V30 27 C 3.4641 -1.5 0.0 0
M  V30 28 C 4.3301 0.0 0.0 0
M  V30 29 C 3.8689 -3.7212 0.0 0
M  V30 30 C 3.4641 -0.5 0.0 0
M  V30 31 C 2.598 0.0 0.0 0
M  V30 32 O 2.598 1.0 0.0 0
M  V30 33 N 1.732 -0.5 0.0 0
M  V30 34 C 0.866 0.0 0.0 0 CFG=2
M  V30 35 C 0.866 1.0 0.0 0
M  V30 36 C 0.0 -0.5 0.0 0
M  V30 37 C 1.732 1.5 0.0 0
M  V30 38 C 0.0 1.4999 0.0 0
M  V30 39 C 1.732 2.5 0.0 0
M  V30 40 C 0.0 2.5 0.0 0
M  V30 41 C 0.866 2.9999 0.0 0
M  V30 42 C 2.598 3.0 0.0 0
M  V30 43 C 3.4641 2.5 0.0 0
M  V30 44 C 2.598 4.0 0.0 0
M  V30 END ATOM
M  V30 BEGIN BOND
M  V30 1 2 1 2
M  V30 2 1 2 3
M  V30 3 1 2 4
M  V30 4 1 3 5
M  V30 5 1 4 6
M  V30 6 1 5 7
M  V30 7 2 7 8
M  V30 8 1 7 9
M  V30 9 1 8 10
M  V30 10 1 8 11
M  V30 11 2 9 12
M  V30 12 2 10 13
M  V30 13 1 10 14
M  V30 14 2 11 15
M  V30 15 1 13 16
M  V30 16 2 14 17
M  V30 17 2 16 18
M  V30 18 1 18 19
M  V30 19 1 19 20
M  V30 20 1 20 21
M  V30 21 1 20 22
M  V30 22 2 21 23
M  V30 23 1 21 24
M  V30 24 2 22 25
M  V30 25 1 22 26
M  V30 26 1 23 27
M  V30 27 2 24 28
M  V30 28 1 25 29
M  V30 29 2 27 30
M  V30 30 1 30 31
M  V30 31 2 31 32
M  V30 32 1 31 33
M  V30 33 1 33 34
M  V30 34 1 34 35
M  V30 35 1 34 36 CFG=1
M  V30 36 2 35 37
M  V30 37 1 35 38
M  V30 38 1 37 39
M  V30 39 2 38 40
M  V30 40 2 39 41
M  V30 41 1 39 42
M  V30 42 1 42 43
M  V30 43 1 42 44
M  V30 44 2 5 6
M  V30 45 1 12 15
M  V30 46 1 17 18
M  V30 47 1 23 25
M  V30 48 1 28 30
M  V30 49 1 40 41
M  V30 END BOND
M  V30 BEGIN COLLECTION
M  V30 MDLV30/STEABS ATOMS=(1 34)
M  V30 END COLLECTION
M  V30 END CTAB
M  END
>  <Molecule ChEMBL ID>
CHEMBL3699390

>  <Smiles>
Cc1c(C)n(Cc2ccc(-c3ccccc3-c3n[nH]c(=O)o3)cc2)c2ccc(C(=O)N[C@@H](C)c3cccc(C(C)C)c3)cc12

>  <IC50_nM>
7

>  <Assay Description>
Lanthascreen Competitive Binding Assay: The assay was performed according to manufacturer protocol. A mixture of nM GST-PPARG-LBD, 5 nM Tb-GST-antibody, 5 nM Fluormone Pan-PPAR Green, and serial dilutions of the experimental compound, beginning at 10 ׬M downwards, was added to wells of black 384-well low-volume plates (Greiner) to a total volume of 18 ׬L. All dilutions were made in TR-FRET assay buffer C. DMSO at 2% final concentration was used as a no-ligand control. Experiment was performed in triplicate, and incubated for 2 hours in the dark prior to assay read in Perkin Elmer ViewLux ultra HTS microplate reader. FRET signal was measured by excitation at 340 nm and emission at 520 nm for fluorescein and 490 nm for terbium. Fold change over DMSO was calculated using GraphPad Prism Software (La Jolla, Calif.) by calculating 520 nm/490 nm ratio. Graphs were plotted as fold change of FRET signal for compound treatment over DMSO-only control.

$$$$
CHEMBL3699424
Actelion Java MolfileCreator 2.0

  0  0  0  0  0  0              0 V3000
M  V30 BEGIN CTAB
M  V30 COUNTS 41 46 0 0 0
M  V30 BEGIN ATOM
M  V30 1 O 11.8592 -3.5669 0.0 0
M  V30 2 C 10.8811 -3.7748 0.0 0
M  V30 3 O 10.212 -3.0316 0.0 0
M  V30 4 C 10.5721 -4.7258 0.0 0
M  V30 5 C 9.5939 -4.9337 0.0 0
M  V30 6 C 11.2412 -5.469 0.0 0
M  V30 7 C 8.9248 -4.1906 0.0 0
M  V30 8 C 9.2849 -5.8848 0.0 0
M  V30 9 C 10.9322 -6.42 0.0 0
M  V30 10 C 9.2338 -3.2395 0.0 0
M  V30 11 C 7.9466 -4.3985 0.0 0
M  V30 12 C 9.954 -6.6279 0.0 0
M  V30 13 C 8.5647 -2.4964 0.0 0
M  V30 14 C 7.2775 -3.6554 0.0 0
M  V30 15 C 7.5865 -2.7043 0.0 0
M  V30 16 C 6.9174 -1.9612 0.0 0
M  V30 17 N 5.9392 -2.1691 0.0 0
M  V30 18 C 5.1961 -1.4999 0.0 0
M  V30 19 C 5.5325 -3.0826 0.0 0
M  V30 20 C 4.3301 -1.9999 0.0 0
M  V30 21 C 5.1961 -0.4999 0.0 0
M  V30 22 C 4.538 -2.9781 0.0 0
M  V30 23 C 6.0325 -3.9487 0.0 0
M  V30 24 C 3.4641 -1.5 0.0 0
M  V30 25 C 4.3301 0.0 0.0 0
M  V30 26 C 3.8689 -3.7212 0.0 0
M  V30 27 C 3.4641 -0.5 0.0 0
M  V30 28 C 2.598 0.0 0.0 0
M  V30 29 O 2.598 1.0 0.0 0
M  V30 30 N 1.732 -0.5 0.0 0
M  V30 31 C 0.866 0.0 0.0 0 CFG=2
M  V30 32 C 0.866 1.0 0.0 0
M  V30 33 C 0.0 -0.5 0.0 0
M  V30 34 C 1.732 1.4999 0.0 0
M  V30 35 C 0.0 1.4999 0.0 0
M  V30 36 C 1.732 2.5 0.0 0
M  V30 37 C 0.0 2.5 0.0 0
M  V30 38 C 0.866 3.0 0.0 0
M  V30 39 C 2.598 3.0 0.0 0
M  V30 40 C 3.598 3.0 0.0 0
M  V30 41 C 3.098 3.866 0.0 0
M  V30 END ATOM
M  V30 BEGIN BOND
M  V30 1 2 1 2
M  V30 2 1 2 3
M  V30 3 1 2 4
M  V30 4 2 4 5
M  V30 5 1 4 6
M  V30 6 1 5 7
M  V30 7 1 5 8
M  V30 8 2 6 9
M  V30 9 2 7 10
M  V30 10 1 7 11
M  V30 11 2 8 12
M  V30 12 1 10 13
M  V30 13 2 11 14
M  V30 14 2 13 15
M  V30 15 1 15 16
M  V30 16 1 16 17
M  V30 17 1 17 18
M  V30 18 1 17 19
M  V30 19 2 18 20
M  V30 20 1 18 21
M  V30 21 2 19 22
M  V30 22 1 19 23
M  V30 23 1 20 24
M  V30 24 2 21 25
M  V30 25 1 22 26
M  V30 26 2 24 27
M  V30 27 1 27 28
M  V30 28 2 28 29
M  V30 29 1 28 30
M  V30 30 1 30 31
M  V30 31 1 31 32
M  V30 32 1 31 33 CFG=1
M  V30 33 2 32 34
M  V30 34 1 32 35
M  V30 35 1 34 36
M  V30 36 2 35 37
M  V30 37 2 36 38
M  V30 38 1 36 39
M  V30 39 1 39 40
M  V30 40 1 39 41
M  V30 41 1 9 12
M  V30 42 1 14 15
M  V30 43 1 20 22
M  V30 44 1 25 27
M  V30 45 1 37 38
M  V30 46 1 40 41
M  V30 END BOND
M  V30 BEGIN COLLECTION
M  V30 MDLV30/STEABS ATOMS=(1 31)
M  V30 END COLLECTION
M  V30 END CTAB
M  END
>  <Molecule ChEMBL ID>
CHEMBL3699424

>  <Smiles>
Cc1c(C)n(Cc2ccc(-c3ccccc3C(=O)O)cc2)c2ccc(C(=O)N[C@@H](C)c3cccc(C4CC4)c3)cc12

>  <IC50_nM>
7

>  <Assay Description>
Binding affinity to GST-tagged PPAR-gamma-LBD (unknown origin) after 2 hrs by Lantha screen assay using fluormone Pan-PPAR green probe

$$$$
CHEMBL5268912
Actelion Java MolfileCreator 2.0

  0  0  0  0  0  0              0 V3000
M  V30 BEGIN CTAB
M  V30 COUNTS 39 41 0 0 0
M  V30 BEGIN ATOM
M  V30 1 Cl 15.5884 6.75 0.0 0
M  V30 2 C 14.2894 6.0 0.0 0
M  V30 3 C 12.9903 6.75 0.0 0
M  V30 4 C 14.2894 4.5 0.0 0
M  V30 5 C 12.9903 8.25 0.0 0
M  V30 6 C 11.6913 6.0 0.0 0
M  V30 7 C 12.9903 3.75 0.0 0
M  V30 8 O 11.6913 9.0 0.0 0
M  V30 9 N 14.2894 9.0 0.0 0
M  V30 10 C 11.6913 4.5 0.0 0
M  V30 11 F 12.9903 2.25 0.0 0
M  V30 12 C 14.2894 10.5 0.0 0
M  V30 13 C 10.3923 3.7499 0.0 0
M  V30 14 C 15.5884 11.25 0.0 0
M  V30 15 C 12.9903 11.25 0.0 0
M  V30 16 O 9.0932 4.5 0.0 0
M  V30 17 N 10.3923 2.25 0.0 0
M  V30 18 C 15.5884 12.75 0.0 0
M  V30 19 C 16.8874 10.5 0.0 0
M  V30 20 C 12.9903 12.75 0.0 0
M  V30 21 C 9.0932 1.5 0.0 0
M  V30 22 C 14.2894 13.5 0.0 0
M  V30 23 C 9.0932 0.0 0.0 0
M  V30 24 C 14.2894 15.0 0.0 0
M  V30 25 C 7.7942 -0.75 0.0 0
M  V30 26 C 10.3923 -0.7499 0.0 0
M  V30 27 F 12.7894 15.0 0.0 0
M  V30 28 F 14.2894 16.5 0.0 0
M  V30 29 F 15.7894 15.0 0.0 0
M  V30 30 C 7.7942 -2.25 0.0 0
M  V30 31 C 6.4951 0.0 0.0 0
M  V30 32 C 10.3923 -2.2499 0.0 0
M  V30 33 C 9.0932 -2.9999 0.0 0
M  V30 34 O 5.1961 -0.75 0.0 0
M  V30 35 F 9.0932 -4.5 0.0 0
M  V30 36 C 3.8971 0.0 0.0 0
M  V30 37 C 2.598 -0.75 0.0 0
M  V30 38 O 1.299 0.0 0.0 0
M  V30 39 C 0.0 -0.75 0.0 0
M  V30 END ATOM
M  V30 BEGIN BOND
M  V30 1 1 1 2
M  V30 2 2 2 3
M  V30 3 1 2 4
M  V30 4 1 3 5
M  V30 5 1 3 6
M  V30 6 2 4 7
M  V30 7 2 5 8
M  V30 8 1 5 9
M  V30 9 2 6 10
M  V30 10 1 7 11
M  V30 11 1 9 12
M  V30 12 1 10 13
M  V30 13 2 12 14
M  V30 14 1 12 15
M  V30 15 2 13 16
M  V30 16 1 13 17
M  V30 17 1 14 18
M  V30 18 1 14 19
M  V30 19 2 15 20
M  V30 20 1 17 21
M  V30 21 2 18 22
M  V30 22 1 21 23
M  V30 23 1 22 24
M  V30 24 2 23 25
M  V30 25 1 23 26
M  V30 26 1 24 27
M  V30 27 1 24 28
M  V30 28 1 24 29
M  V30 29 1 25 30
M  V30 30 1 25 31
M  V30 31 2 26 32
M  V30 32 2 30 33
M  V30 33 1 31 34
M  V30 34 1 33 35
M  V30 35 1 34 36
M  V30 36 1 36 37
M  V30 37 1 37 38
M  V30 38 1 38 39
M  V30 39 1 7 10
M  V30 40 1 20 22
M  V30 41 1 32 33
M  V30 END BOND
M  V30 END CTAB
M  END
>  <Molecule ChEMBL ID>
CHEMBL5268912

>  <Smiles>
COCCOCc1cc(F)ccc1CNC(=O)c1cc(C(=O)Nc2ccc(C(F)(F)F)cc2C)c(Cl)cc1F

>  <IC50_nM>
7.35

>  <Assay Description>
Inverse agonist activity at human PPARgamma in human RT112/84 transfected with NLuc-fused FABP4 assessed as reduction in PPARgamma transactivation incubated for 6 to 18 hrs by Nano-Glo luciferase assay

$$$$
CHEMBL1947142
Actelion Java MolfileCreator 2.0

  0  0  0  0  0  0              0 V3000
M  V30 BEGIN CTAB
M  V30 COUNTS 41 46 0 0 0
M  V30 BEGIN ATOM
M  V30 1 Cl 2.598 0.9999 0.0 0
M  V30 2 C 1.732 1.4999 0.0 0
M  V30 3 C 0.866 0.9999 0.0 0
M  V30 4 C 1.732 2.4999 0.0 0
M  V30 5 C 0.0 1.5 0.0 0
M  V30 6 C 0.866 0.0 0.0 0
M  V30 7 C 0.866 3.0 0.0 0
M  V30 8 C 0.0 2.5 0.0 0
M  V30 9 N 0.0 -0.5 0.0 0
M  V30 10 C -0.866 3.0 0.0 0 CFG=1
M  V30 11 C -0.9135 -0.0932 0.0 0
M  V30 12 C -0.1045 -1.4945 0.0 0
M  V30 13 O -1.7795 2.5932 0.0 0
M  V30 14 C -0.9705 3.9945 0.0 0
M  V30 15 C -0.0273 3.5446 0.0 0
M  V30 16 O -1.1214 0.8848 0.0 0
M  V30 17 N -1.5826 -0.8364 0.0 0
M  V30 18 C -1.0826 -1.7024 0.0 0
M  V30 19 C 0.5646 -2.2376 0.0 0
M  V30 20 C -2.4487 3.3364 0.0 0
M  V30 21 O -0.2274 4.6636 0.0 0
M  V30 22 N -1.9487 4.2024 0.0 0
M  V30 23 C -2.5771 -0.7318 0.0 0
M  V30 24 C -1.3916 -2.6534 0.0 0
M  V30 25 C 0.2555 -3.1887 0.0 0
M  V30 26 O -3.4432 3.2318 0.0 0
M  V30 27 N -3.0771 0.1341 0.0 0
M  V30 28 C -3.2463 -1.475 0.0 0
M  V30 29 C -0.7225 -3.3966 0.0 0
M  V30 30 C 0.9247 -3.9318 0.0 0
M  V30 31 O -4.0553 -0.0737 0.0 0
M  V30 32 C -4.1598 -1.0682 0.0 0
M  V30 33 C -3.1418 -2.4695 0.0 0
M  V30 34 F 1.6678 -3.2627 0.0 0
M  V30 35 F 1.5938 -4.675 0.0 0
M  V30 36 F 0.1815 -4.6009 0.0 0
M  V30 37 C -4.9688 -1.656 0.0 0
M  V30 38 C -3.9508 -3.0573 0.0 0
M  V30 39 C -4.8643 -2.6505 0.0 0
M  V30 40 O -5.6733 -3.2383 0.0 0
M  V30 41 C -5.5688 -4.2329 0.0 0
M  V30 END ATOM
M  V30 BEGIN BOND
M  V30 1 1 1 2
M  V30 2 2 2 3
M  V30 3 1 2 4
M  V30 4 1 3 5
M  V30 5 1 3 6
M  V30 6 2 4 7
M  V30 7 2 5 8
M  V30 8 1 6 9
M  V30 9 1 8 10
M  V30 10 1 9 11
M  V30 11 1 9 12
M  V30 12 1 10 13
M  V30 13 1 10 14
M  V30 14 1 10 15 CFG=3
M  V30 15 2 11 16
M  V30 16 1 11 17
M  V30 17 2 12 18
M  V30 18 1 12 19
M  V30 19 1 13 20
M  V30 20 2 14 21
M  V30 21 1 14 22
M  V30 22 1 17 23
M  V30 23 1 18 24
M  V30 24 2 19 25
M  V30 25 2 20 26
M  V30 26 2 23 27
M  V30 27 1 23 28
M  V30 28 2 24 29
M  V30 29 1 25 30
M  V30 30 1 27 31
M  V30 31 2 28 32
M  V30 32 1 28 33
M  V30 33 1 30 34
M  V30 34 1 30 35
M  V30 35 1 30 36
M  V30 36 1 32 37
M  V30 37 2 33 38
M  V30 38 2 37 39
M  V30 39 1 39 40
M  V30 40 1 40 41
M  V30 41 1 7 8
M  V30 42 1 17 18
M  V30 43 1 20 22
M  V30 44 1 25 29
M  V30 45 1 31 32
M  V30 46 1 38 39
M  V30 END BOND
M  V30 BEGIN COLLECTION
M  V30 MDLV30/STEABS ATOMS=(1 10)
M  V30 END COLLECTION
M  V30 END CTAB
M  END
>  <Molecule ChEMBL ID>
CHEMBL1947142

>  <Smiles>
COc1ccc2c(-n3c(=O)n(Cc4cc([C@@]5(C)OC(=O)NC5=O)ccc4Cl)c4cc(C(F)(F)F)ccc43)noc2c1

>  <IC50_nM>
7.7

>  <Assay Description>
Binding affinity to human PPARgamma by scintillation proximity assay

$$$$
CHEMBL121
Actelion Java MolfileCreator 2.0

  0  0  0  0  0  0              0 V3000
M  V30 BEGIN CTAB
M  V30 COUNTS 25 27 0 0 0
M  V30 BEGIN ATOM
M  V30 1 S 7.8987 0.0054 0.0 0
M  V30 2 C 8.8769 -0.2024 0.0 0
M  V30 3 C 7.7942 0.9999 0.0 0 CFG=2
M  V30 4 O 9.2836 -1.1159 0.0 0
M  V30 5 N 9.3769 0.6635 0.0 0
M  V30 6 C 8.7077 1.4067 0.0 0
M  V30 7 C 6.9282 1.4999 0.0 0
M  V30 8 O 8.9156 2.3848 0.0 0
M  V30 9 C 6.0621 0.9999 0.0 0
M  V30 10 C 5.1961 1.4999 0.0 0
M  V30 11 C 6.0621 0.0 0.0 0
M  V30 12 C 4.3301 0.9999 0.0 0
M  V30 13 C 5.1961 -0.5 0.0 0
M  V30 14 C 4.3301 0.0 0.0 0
M  V30 15 O 3.4641 -0.5 0.0 0
M  V30 16 C 2.598 0.0 0.0 0
M  V30 17 C 1.732 -0.5 0.0 0
M  V30 18 N 0.866 0.0 0.0 0
M  V30 19 C 0.866 1.0 0.0 0
M  V30 20 C 0.0 -0.5 0.0 0
M  V30 21 N 1.732 1.4999 0.0 0
M  V30 22 C 0.0 1.4999 0.0 0
M  V30 23 C 1.732 2.5 0.0 0
M  V30 24 C 0.0 2.5 0.0 0
M  V30 25 C 0.866 3.0 0.0 0
M  V30 END ATOM
M  V30 BEGIN BOND
M  V30 1 1 1 2
M  V30 2 1 1 3
M  V30 3 2 2 4
M  V30 4 1 2 5
M  V30 5 1 3 6
M  V30 6 1 3 7 CFG=1
M  V30 7 2 6 8
M  V30 8 1 7 9
M  V30 9 2 9 10
M  V30 10 1 9 11
M  V30 11 1 10 12
M  V30 12 2 11 13
M  V30 13 2 12 14
M  V30 14 1 14 15
M  V30 15 1 15 16
M  V30 16 1 16 17
M  V30 17 1 17 18
M  V30 18 1 18 19
M  V30 19 1 18 20
M  V30 20 2 19 21
M  V30 21 1 19 22
M  V30 22 1 21 23
M  V30 23 2 22 24
M  V30 24 2 23 25
M  V30 25 1 5 6
M  V30 26 1 13 14
M  V30 27 1 24 25
M  V30 END BOND
M  V30 BEGIN COLLECTION
M  V30 MDLV30/STERAC1 ATOMS=(1 3)
M  V30 END COLLECTION
M  V30 END CTAB
M  END
>  <Molecule ChEMBL ID>
CHEMBL121

>  <Smiles>
CN(CCOc1ccc(CC2SC(=O)NC2=O)cc1)c1ccccn1

>  <IC50_nM>
7.7

>  <Assay Description>
Agonist activity at PPARg-LBD (unknown origin) expressed in HEK293 cells assessed as displacement of SMRT incubated for 16 hrs by luciferase reporter gene based mammalian two hybrid assay

$$$$
CHEMBL392717
Actelion Java MolfileCreator 2.0

  0  0  0  0  0  0              0 V3000
M  V30 BEGIN CTAB
M  V30 COUNTS 37 39 0 0 0
M  V30 BEGIN ATOM
M  V30 1 F 6.4951 1.5 0.0 0
M  V30 2 C 6.4951 0.0 0.0 0
M  V30 3 C 5.1961 -0.75 0.0 0
M  V30 4 C 7.7942 -0.75 0.0 0
M  V30 5 C 3.8971 0.0 0.0 0
M  V30 6 C 5.1961 -2.25 0.0 0
M  V30 7 C 7.7942 -2.25 0.0 0
M  V30 8 O 3.8971 1.5 0.0 0
M  V30 9 N 2.598 -0.75 0.0 0
M  V30 10 C 6.4951 -3.0 0.0 0
M  V30 11 C 9.0932 -3.0 0.0 0
M  V30 12 C 1.299 0.0 0.0 0
M  V30 13 F 9.8432 -1.7009 0.0 0
M  V30 14 F 10.3923 -3.75 0.0 0
M  V30 15 F 8.3432 -4.299 0.0 0
M  V30 16 C 0.0 -0.75 0.0 0
M  V30 17 C -1.299 0.0 0.0 0
M  V30 18 C 0.0 -2.25 0.0 0
M  V30 19 C -2.598 -0.75 0.0 0
M  V30 20 C -1.299 -3.0 0.0 0
M  V30 21 F -3.8971 0.0 0.0 0
M  V30 22 C -2.598 -2.25 0.0 0
M  V30 23 O -1.299 -4.5 0.0 0
M  V30 24 C 0.0 -5.25 0.0 0
M  V30 25 C 0.0 -6.75 0.0 0
M  V30 26 C 1.299 -4.5 0.0 0
M  V30 27 C 1.299 -7.5 0.0 0
M  V30 28 C 2.598 -5.25 0.0 0
M  V30 29 C 2.598 -6.75 0.0 0
M  V30 30 C 1.299 -9.0 0.0 0
M  V30 31 O 3.8971 -7.5 0.0 0
M  V30 32 C 5.1961 -6.75 0.0 0
M  V30 33 C 6.4951 -7.5 0.0 0
M  V30 34 C 5.9461 -5.451 0.0 0
M  V30 35 C 4.4461 -5.451 0.0 0
M  V30 36 O 6.4951 -9.0 0.0 0
M  V30 37 O 7.7942 -6.75 0.0 0
M  V30 END ATOM
M  V30 BEGIN BOND
M  V30 1 1 1 2
M  V30 2 2 2 3
M  V30 3 1 2 4
M  V30 4 1 3 5
M  V30 5 1 3 6
M  V30 6 2 4 7
M  V30 7 2 5 8
M  V30 8 1 5 9
M  V30 9 2 6 10
M  V30 10 1 7 11
M  V30 11 1 9 12
M  V30 12 1 11 13
M  V30 13 1 11 14
M  V30 14 1 11 15
M  V30 15 1 12 16
M  V30 16 2 16 17
M  V30 17 1 16 18
M  V30 18 1 17 19
M  V30 19 2 18 20
M  V30 20 1 19 21
M  V30 21 2 19 22
M  V30 22 1 20 23
M  V30 23 1 23 24
M  V30 24 2 24 25
M  V30 25 1 24 26
M  V30 26 1 25 27
M  V30 27 2 26 28
M  V30 28 2 27 29
M  V30 29 1 27 30
M  V30 30 1 29 31
M  V30 31 1 31 32
M  V30 32 1 32 33
M  V30 33 1 32 34
M  V30 34 1 32 35
M  V30 35 2 33 36
M  V30 36 1 33 37
M  V30 37 1 7 10
M  V30 38 1 20 22
M  V30 39 1 28 29
M  V30 END BOND
M  V30 END CTAB
M  END
>  <Molecule ChEMBL ID>
CHEMBL392717

>  <Smiles>
Cc1cc(Oc2cc(F)cc(CNC(=O)c3ccc(C(F)(F)F)cc3F)c2)ccc1OC(C)(C)C(=O)O

>  <IC50_nM>
7.998

>  <Assay Description>
Agonist activity at PPARgamma

$$$$
CHEMBL237520
Actelion Java MolfileCreator 2.0

  0  0  0  0  0  0              0 V3000
M  V30 BEGIN CTAB
M  V30 COUNTS 37 39 0 0 0
M  V30 BEGIN ATOM
M  V30 1 F 6.4951 1.5 0.0 0
M  V30 2 C 6.4951 0.0 0.0 0
M  V30 3 C 5.1961 -0.75 0.0 0
M  V30 4 C 7.7942 -0.75 0.0 0
M  V30 5 C 3.8971 0.0 0.0 0
M  V30 6 C 5.1961 -2.25 0.0 0
M  V30 7 C 7.7942 -2.25 0.0 0
M  V30 8 O 3.8971 1.5 0.0 0
M  V30 9 N 2.598 -0.75 0.0 0
M  V30 10 C 6.4951 -3.0 0.0 0
M  V30 11 C 9.0932 -3.0 0.0 0
M  V30 12 C 1.299 0.0 0.0 0
M  V30 13 F 9.8432 -1.7009 0.0 0
M  V30 14 F 10.3923 -3.75 0.0 0
M  V30 15 F 8.3432 -4.299 0.0 0
M  V30 16 C 0.0 -0.75 0.0 0
M  V30 17 C -1.299 0.0 0.0 0
M  V30 18 C 0.0 -2.25 0.0 0
M  V30 19 F -1.299 1.5 0.0 0
M  V30 20 C -2.598 -0.75 0.0 0
M  V30 21 C -1.299 -3.0 0.0 0
M  V30 22 C -2.598 -2.25 0.0 0
M  V30 23 O -1.299 -4.5 0.0 0
M  V30 24 C 0.0 -5.25 0.0 0
M  V30 25 C 0.0 -6.75 0.0 0
M  V30 26 C 1.299 -4.5 0.0 0
M  V30 27 C 1.299 -7.5 0.0 0
M  V30 28 C 2.598 -5.25 0.0 0
M  V30 29 C 2.598 -6.75 0.0 0
M  V30 30 C 1.299 -9.0 0.0 0
M  V30 31 O 3.8971 -7.5 0.0 0
M  V30 32 C 5.1961 -6.75 0.0 0
M  V30 33 C 6.4951 -7.5 0.0 0
M  V30 34 C 5.9461 -5.451 0.0 0
M  V30 35 C 4.4461 -5.451 0.0 0
M  V30 36 O 6.4951 -9.0 0.0 0
M  V30 37 O 7.7942 -6.75 0.0 0
M  V30 END ATOM
M  V30 BEGIN BOND
M  V30 1 1 1 2
M  V30 2 2 2 3
M  V30 3 1 2 4
M  V30 4 1 3 5
M  V30 5 1 3 6
M  V30 6 2 4 7
M  V30 7 2 5 8
M  V30 8 1 5 9
M  V30 9 2 6 10
M  V30 10 1 7 11
M  V30 11 1 9 12
M  V30 12 1 11 13
M  V30 13 1 11 14
M  V30 14 1 11 15
M  V30 15 1 12 16
M  V30 16 2 16 17
M  V30 17 1 16 18
M  V30 18 1 17 19
M  V30 19 1 17 20
M  V30 20 2 18 21
M  V30 21 2 20 22
M  V30 22 1 21 23
M  V30 23 1 23 24
M  V30 24 2 24 25
M  V30 25 1 24 26
M  V30 26 1 25 27
M  V30 27 2 26 28
M  V30 28 2 27 29
M  V30 29 1 27 30
M  V30 30 1 29 31
M  V30 31 1 31 32
M  V30 32 1 32 33
M  V30 33 1 32 34
M  V30 34 1 32 35
M  V30 35 2 33 36
M  V30 36 1 33 37
M  V30 37 1 7 10
M  V30 38 1 21 22
M  V30 39 1 28 29
M  V30 END BOND
M  V30 END CTAB
M  END
>  <Molecule ChEMBL ID>
CHEMBL237520

>  <Smiles>
Cc1cc(Oc2ccc(F)c(CNC(=O)c3ccc(C(F)(F)F)cc3F)c2)ccc1OC(C)(C)C(=O)O

>  <IC50_nM>
7.998

>  <Assay Description>
Agonist activity at PPARgamma

$$$$
CHEMBL237306
Actelion Java MolfileCreator 2.0

  0  0  0  0  0  0              0 V3000
M  V30 BEGIN CTAB
M  V30 COUNTS 34 36 0 0 0
M  V30 BEGIN ATOM
M  V30 1 O 5.1961 -0.75 0.0 0
M  V30 2 C 3.8971 0.0 0.0 0
M  V30 3 N 2.598 -0.75 0.0 0
M  V30 4 C 3.8971 1.5 0.0 0
M  V30 5 C 1.299 0.0 0.0 0
M  V30 6 C 5.1961 2.25 0.0 0
M  V30 7 C 2.598 2.25 0.0 0
M  V30 8 C 0.0 -0.75 0.0 0
M  V30 9 C 5.1961 3.75 0.0 0
M  V30 10 C 6.4951 1.5 0.0 0
M  V30 11 C 2.598 3.75 0.0 0
M  V30 12 C -1.299 0.0 0.0 0
M  V30 13 C 0.0 -2.25 0.0 0
M  V30 14 C 3.8971 4.5 0.0 0
M  V30 15 C -2.598 -0.75 0.0 0
M  V30 16 C -1.299 -3.0 0.0 0
M  V30 17 O 3.8971 6.0 0.0 0
M  V30 18 O -3.8971 0.0 0.0 0
M  V30 19 C -2.598 -2.25 0.0 0
M  V30 20 C 2.598 6.75 0.0 0
M  V30 21 C -5.1961 -0.75 0.0 0
M  V30 22 C -6.4951 0.0 0.0 0
M  V30 23 C -5.1961 -2.25 0.0 0
M  V30 24 C -7.7942 -0.75 0.0 0
M  V30 25 C -6.4951 -3.0 0.0 0
M  V30 26 C -7.7942 -2.25 0.0 0
M  V30 27 C -9.0932 0.0 0.0 0
M  V30 28 O -9.0932 -3.0 0.0 0
M  V30 29 C -9.0932 -4.5 0.0 0
M  V30 30 C -10.3923 -5.25 0.0 0
M  V30 31 C -8.3433 -5.799 0.0 0
M  V30 32 C -7.5933 -4.4999 0.0 0
M  V30 33 O -11.6913 -4.5 0.0 0
M  V30 34 O -10.3923 -6.75 0.0 0
M  V30 END ATOM
M  V30 BEGIN BOND
M  V30 1 2 1 2
M  V30 2 1 2 3
M  V30 3 1 2 4
M  V30 4 1 3 5
M  V30 5 2 4 6
M  V30 6 1 4 7
M  V30 7 1 5 8
M  V30 8 1 6 9
M  V30 9 1 6 10
M  V30 10 2 7 11
M  V30 11 2 8 12
M  V30 12 1 8 13
M  V30 13 2 9 14
M  V30 14 1 12 15
M  V30 15 2 13 16
M  V30 16 1 14 17
M  V30 17 1 15 18
M  V30 18 2 15 19
M  V30 19 1 17 20
M  V30 20 1 18 21
M  V30 21 2 21 22
M  V30 22 1 21 23
M  V30 23 1 22 24
M  V30 24 2 23 25
M  V30 25 2 24 26
M  V30 26 1 24 27
M  V30 27 1 26 28
M  V30 28 1 28 29
M  V30 29 1 29 30
M  V30 30 1 29 31
M  V30 31 1 29 32
M  V30 32 2 30 33
M  V30 33 1 30 34
M  V30 34 1 11 14
M  V30 35 1 16 19
M  V30 36 1 25 26
M  V30 END BOND
M  V30 END CTAB
M  END
>  <Molecule ChEMBL ID>
CHEMBL237306

>  <Smiles>
COc1ccc(C(=O)NCc2cccc(Oc3ccc(OC(C)(C)C(=O)O)c(C)c3)c2)c(C)c1

>  <IC50_nM>
7.998

>  <Assay Description>
Agonist activity at PPARgamma

$$$$
CHEMBL237485
Actelion Java MolfileCreator 2.0

  0  0  0  0  0  0              0 V3000
M  V30 BEGIN CTAB
M  V30 COUNTS 33 36 0 0 0
M  V30 BEGIN ATOM
M  V30 1 Br 9.8201 -5.1517 0.0 0
M  V30 2 C 9.0701 -3.8526 0.0 0
M  V30 3 C 7.5701 -3.8526 0.0 0
M  V30 4 C 9.8201 -2.5536 0.0 0
M  V30 5 C 6.8201 -2.5536 0.0 0
M  V30 6 C 9.0701 -1.2546 0.0 0
M  V30 7 C 7.5701 -1.2546 0.0 0
M  V30 8 C 5.3529 -2.2417 0.0 0
M  V30 9 N 6.5664 -0.1398 0.0 0
M  V30 10 C 5.1961 -0.75 0.0 0
M  V30 11 C 3.8971 0.0 0.0 0
M  V30 12 O 3.8971 1.5 0.0 0
M  V30 13 N 2.598 -0.75 0.0 0
M  V30 14 C 1.299 0.0 0.0 0
M  V30 15 C 0.0 -0.75 0.0 0
M  V30 16 C -1.299 0.0 0.0 0
M  V30 17 C 0.0 -2.25 0.0 0
M  V30 18 C -2.598 -0.7499 0.0 0
M  V30 19 C -1.299 -2.9999 0.0 0
M  V30 20 O -3.8971 0.0 0.0 0
M  V30 21 C -2.598 -2.2499 0.0 0
M  V30 22 C -5.1961 -0.7499 0.0 0
M  V30 23 C -6.4951 0.0 0.0 0
M  V30 24 C -5.1961 -2.2499 0.0 0
M  V30 25 C -7.7942 -0.7499 0.0 0
M  V30 26 C -6.4951 -2.9999 0.0 0
M  V30 27 C -7.7942 -2.2499 0.0 0
M  V30 28 C -9.0932 0.0 0.0 0
M  V30 29 C -9.0932 -2.9999 0.0 0
M  V30 30 C -9.0932 -4.4999 0.0 0
M  V30 31 C -10.3923 -5.2499 0.0 0
M  V30 32 O -11.6913 -4.4999 0.0 0
M  V30 33 O -10.3923 -6.7499 0.0 0
M  V30 END ATOM
M  V30 BEGIN BOND
M  V30 1 1 1 2
M  V30 2 2 2 3
M  V30 3 1 2 4
M  V30 4 1 3 5
M  V30 5 2 4 6
M  V30 6 2 5 7
M  V30 7 1 5 8
M  V30 8 1 7 9
M  V30 9 2 8 10
M  V30 10 1 10 11
M  V30 11 2 11 12
M  V30 12 1 11 13
M  V30 13 1 13 14
M  V30 14 1 14 15
M  V30 15 2 15 16
M  V30 16 1 15 17
M  V30 17 1 16 18
M  V30 18 2 17 19
M  V30 19 1 18 20
M  V30 20 2 18 21
M  V30 21 1 20 22
M  V30 22 2 22 23
M  V30 23 1 22 24
M  V30 24 1 23 25
M  V30 25 2 24 26
M  V30 26 2 25 27
M  V30 27 1 25 28
M  V30 28 1 27 29
M  V30 29 1 29 30
M  V30 30 1 30 31
M  V30 31 2 31 32
M  V30 32 1 31 33
M  V30 33 1 6 7
M  V30 34 1 9 10
M  V30 35 1 19 21
M  V30 36 1 26 27
M  V30 END BOND
M  V30 END CTAB
M  END
>  <Molecule ChEMBL ID>
CHEMBL237485

>  <Smiles>
Cc1cc(Oc2cccc(CNC(=O)c3cc4cc(Br)ccc4[nH]3)c2)ccc1CCC(=O)O

>  <IC50_nM>
7.998

>  <Assay Description>
Agonist activity at PPARgamma

$$$$
CHEMBL602468
Actelion Java MolfileCreator 2.0

  0  0  0  0  0  0              0 V3000
M  V30 BEGIN CTAB
M  V30 COUNTS 39 43 0 0 0
M  V30 BEGIN ATOM
M  V30 1 O 11.1837 5.7369 0.0 0
M  V30 2 C 10.8747 4.7859 0.0 0
M  V30 3 O 9.8965 4.578 0.0 0
M  V30 4 C 11.5438 4.0427 0.0 0
M  V30 5 C 11.2348 3.0917 0.0 0
M  V30 6 C 12.522 4.2506 0.0 0
M  V30 7 C 10.2566 2.8838 0.0 0
M  V30 8 C 11.9039 2.3485 0.0 0
M  V30 9 C 13.1911 3.5075 0.0 0
M  V30 10 C 9.5875 3.6269 0.0 0
M  V30 11 C 9.9476 1.9327 0.0 0
M  V30 12 C 12.8821 2.5564 0.0 0
M  V30 13 C 8.6094 3.419 0.0 0
M  V30 14 C 8.9695 1.7248 0.0 0
M  V30 15 C 8.3003 2.4679 0.0 0
M  V30 16 C 7.3222 2.26 0.0 0
M  V30 17 N 7.0132 1.309 0.0 0
M  V30 18 C 6.0621 0.9999 0.0 0
M  V30 19 C 7.601 0.5 0.0 0
M  V30 20 C 6.0621 0.0 0.0 0
M  V30 21 C 5.1961 1.4999 0.0 0
M  V30 22 C 7.0132 -0.309 0.0 0
M  V30 23 C 8.601 0.5 0.0 0
M  V30 24 C 5.1961 -0.5 0.0 0
M  V30 25 C 4.3301 0.9999 0.0 0
M  V30 26 C 7.3222 -1.26 0.0 0
M  V30 27 C 4.3301 0.0 0.0 0
M  V30 28 C 3.4641 -0.5 0.0 0
M  V30 29 O 3.4641 -1.5 0.0 0
M  V30 30 N 2.598 0.0 0.0 0
M  V30 31 C 1.732 -0.5 0.0 0 CFG=2
M  V30 32 C 1.732 -1.5 0.0 0
M  V30 33 C 0.866 0.0 0.0 0
M  V30 34 C 0.866 -1.9999 0.0 0
M  V30 35 C 2.598 -2.0 0.0 0
M  V30 36 C 0.0 -0.5 0.0 0
M  V30 37 C 0.866 -2.9999 0.0 0
M  V30 38 C 2.598 -3.0 0.0 0
M  V30 39 C 1.732 -3.5 0.0 0
M  V30 END ATOM
M  V30 BEGIN BOND
M  V30 1 2 1 2
M  V30 2 1 2 3
M  V30 3 1 2 4
M  V30 4 2 4 5
M  V30 5 1 4 6
M  V30 6 1 5 7
M  V30 7 1 5 8
M  V30 8 2 6 9
M  V30 9 2 7 10
M  V30 10 1 7 11
M  V30 11 2 8 12
M  V30 12 1 10 13
M  V30 13 2 11 14
M  V30 14 2 13 15
M  V30 15 1 15 16
M  V30 16 1 16 17
M  V30 17 1 17 18
M  V30 18 1 17 19
M  V30 19 2 18 20
M  V30 20 1 18 21
M  V30 21 2 19 22
M  V30 22 1 19 23
M  V30 23 1 20 24
M  V30 24 2 21 25
M  V30 25 1 22 26
M  V30 26 2 24 27
M  V30 27 1 27 28
M  V30 28 2 28 29
M  V30 29 1 28 30
M  V30 30 1 31 30 CFG=3
M  V30 31 1 31 32
M  V30 32 1 31 33
M  V30 33 2 32 34
M  V30 34 1 32 35
M  V30 35 1 33 36
M  V30 36 1 34 37
M  V30 37 2 35 38
M  V30 38 2 37 39
M  V30 39 1 9 12
M  V30 40 1 14 15
M  V30 41 1 20 22
M  V30 42 1 25 27
M  V30 43 1 38 39
M  V30 END BOND
M  V30 BEGIN COLLECTION
M  V30 MDLV30/STERAC1 ATOMS=(1 31)
M  V30 END COLLECTION
M  V30 END CTAB
M  END
>  <Molecule ChEMBL ID>
CHEMBL602468

>  <Smiles>
CCC(NC(=O)c1ccc2c(c1)c(C)c(C)n2Cc1ccc(-c2ccccc2C(=O)O)cc1)c1ccccc1

>  <IC50_nM>
8

>  <Assay Description>
Displacement of radiolabeled ((5-{4-[Methyl-pyridin-2yl-amino)-ethoxy]-benzyl}-thiazolidine-2,4-dione) from human PPARgamma ligand binding domain expressed in Escherichia coli

$$$$
CHEMBL237520
Actelion Java MolfileCreator 2.0

  0  0  0  0  0  0              0 V3000
M  V30 BEGIN CTAB
M  V30 COUNTS 37 39 0 0 0
M  V30 BEGIN ATOM
M  V30 1 F 6.4951 1.5 0.0 0
M  V30 2 C 6.4951 0.0 0.0 0
M  V30 3 C 5.1961 -0.75 0.0 0
M  V30 4 C 7.7942 -0.75 0.0 0
M  V30 5 C 3.8971 0.0 0.0 0
M  V30 6 C 5.1961 -2.25 0.0 0
M  V30 7 C 7.7942 -2.25 0.0 0
M  V30 8 O 3.8971 1.5 0.0 0
M  V30 9 N 2.598 -0.75 0.0 0
M  V30 10 C 6.4951 -3.0 0.0 0
M  V30 11 C 9.0932 -3.0 0.0 0
M  V30 12 C 1.299 0.0 0.0 0
M  V30 13 F 9.8432 -1.7009 0.0 0
M  V30 14 F 10.3923 -3.75 0.0 0
M  V30 15 F 8.3432 -4.299 0.0 0
M  V30 16 C 0.0 -0.75 0.0 0
M  V30 17 C -1.299 0.0 0.0 0
M  V30 18 C 0.0 -2.25 0.0 0
M  V30 19 F -1.299 1.5 0.0 0
M  V30 20 C -2.598 -0.75 0.0 0
M  V30 21 C -1.299 -3.0 0.0 0
M  V30 22 C -2.598 -2.25 0.0 0
M  V30 23 O -1.299 -4.5 0.0 0
M  V30 24 C 0.0 -5.25 0.0 0
M  V30 25 C 0.0 -6.75 0.0 0
M  V30 26 C 1.299 -4.5 0.0 0
M  V30 27 C 1.299 -7.5 0.0 0
M  V30 28 C 2.598 -5.25 0.0 0
M  V30 29 C 2.598 -6.75 0.0 0
M  V30 30 C 1.299 -9.0 0.0 0
M  V30 31 O 3.8971 -7.5 0.0 0
M  V30 32 C 5.1961 -6.75 0.0 0
M  V30 33 C 6.4951 -7.5 0.0 0
M  V30 34 C 5.9461 -5.451 0.0 0
M  V30 35 C 4.4461 -5.451 0.0 0
M  V30 36 O 6.4951 -9.0 0.0 0
M  V30 37 O 7.7942 -6.75 0.0 0
M  V30 END ATOM
M  V30 BEGIN BOND
M  V30 1 1 1 2
M  V30 2 2 2 3
M  V30 3 1 2 4
M  V30 4 1 3 5
M  V30 5 1 3 6
M  V30 6 2 4 7
M  V30 7 2 5 8
M  V30 8 1 5 9
M  V30 9 2 6 10
M  V30 10 1 7 11
M  V30 11 1 9 12
M  V30 12 1 11 13
M  V30 13 1 11 14
M  V30 14 1 11 15
M  V30 15 1 12 16
M  V30 16 2 16 17
M  V30 17 1 16 18
M  V30 18 1 17 19
M  V30 19 1 17 20
M  V30 20 2 18 21
M  V30 21 2 20 22
M  V30 22 1 21 23
M  V30 23 1 23 24
M  V30 24 2 24 25
M  V30 25 1 24 26
M  V30 26 1 25 27
M  V30 27 2 26 28
M  V30 28 2 27 29
M  V30 29 1 27 30
M  V30 30 1 29 31
M  V30 31 1 31 32
M  V30 32 1 32 33
M  V30 33 1 32 34
M  V30 34 1 32 35
M  V30 35 2 33 36
M  V30 36 1 33 37
M  V30 37 1 7 10
M  V30 38 1 21 22
M  V30 39 1 28 29
M  V30 END BOND
M  V30 END CTAB
M  END
>  <Molecule ChEMBL ID>
CHEMBL237520

>  <Smiles>
Cc1cc(Oc2ccc(F)c(CNC(=O)c3ccc(C(F)(F)F)cc3F)c2)ccc1OC(C)(C)C(=O)O

>  <IC50_nM>
8

>  <Assay Description>
Agonist activity at PPARgamma

$$$$
CHEMBL237485
Actelion Java MolfileCreator 2.0

  0  0  0  0  0  0              0 V3000
M  V30 BEGIN CTAB
M  V30 COUNTS 33 36 0 0 0
M  V30 BEGIN ATOM
M  V30 1 Br 9.8201 -5.1517 0.0 0
M  V30 2 C 9.0701 -3.8526 0.0 0
M  V30 3 C 7.5701 -3.8526 0.0 0
M  V30 4 C 9.8201 -2.5536 0.0 0
M  V30 5 C 6.8201 -2.5536 0.0 0
M  V30 6 C 9.0701 -1.2546 0.0 0
M  V30 7 C 7.5701 -1.2546 0.0 0
M  V30 8 C 5.3529 -2.2417 0.0 0
M  V30 9 N 6.5664 -0.1398 0.0 0
M  V30 10 C 5.1961 -0.75 0.0 0
M  V30 11 C 3.8971 0.0 0.0 0
M  V30 12 O 3.8971 1.5 0.0 0
M  V30 13 N 2.598 -0.75 0.0 0
M  V30 14 C 1.299 0.0 0.0 0
M  V30 15 C 0.0 -0.75 0.0 0
M  V30 16 C -1.299 0.0 0.0 0
M  V30 17 C 0.0 -2.25 0.0 0
M  V30 18 C -2.598 -0.7499 0.0 0
M  V30 19 C -1.299 -2.9999 0.0 0
M  V30 20 O -3.8971 0.0 0.0 0
M  V30 21 C -2.598 -2.2499 0.0 0
M  V30 22 C -5.1961 -0.7499 0.0 0
M  V30 23 C -6.4951 0.0 0.0 0
M  V30 24 C -5.1961 -2.2499 0.0 0
M  V30 25 C -7.7942 -0.7499 0.0 0
M  V30 26 C -6.4951 -2.9999 0.0 0
M  V30 27 C -7.7942 -2.2499 0.0 0
M  V30 28 C -9.0932 0.0 0.0 0
M  V30 29 C -9.0932 -2.9999 0.0 0
M  V30 30 C -9.0932 -4.4999 0.0 0
M  V30 31 C -10.3923 -5.2499 0.0 0
M  V30 32 O -11.6913 -4.4999 0.0 0
M  V30 33 O -10.3923 -6.7499 0.0 0
M  V30 END ATOM
M  V30 BEGIN BOND
M  V30 1 1 1 2
M  V30 2 2 2 3
M  V30 3 1 2 4
M  V30 4 1 3 5
M  V30 5 2 4 6
M  V30 6 2 5 7
M  V30 7 1 5 8
M  V30 8 1 7 9
M  V30 9 2 8 10
M  V30 10 1 10 11
M  V30 11 2 11 12
M  V30 12 1 11 13
M  V30 13 1 13 14
M  V30 14 1 14 15
M  V30 15 2 15 16
M  V30 16 1 15 17
M  V30 17 1 16 18
M  V30 18 2 17 19
M  V30 19 1 18 20
M  V30 20 2 18 21
M  V30 21 1 20 22
M  V30 22 2 22 23
M  V30 23 1 22 24
M  V30 24 1 23 25
M  V30 25 2 24 26
M  V30 26 2 25 27
M  V30 27 1 25 28
M  V30 28 1 27 29
M  V30 29 1 29 30
M  V30 30 1 30 31
M  V30 31 2 31 32
M  V30 32 1 31 33
M  V30 33 1 6 7
M  V30 34 1 9 10
M  V30 35 1 19 21
M  V30 36 1 26 27
M  V30 END BOND
M  V30 END CTAB
M  END
>  <Molecule ChEMBL ID>
CHEMBL237485

>  <Smiles>
Cc1cc(Oc2cccc(CNC(=O)c3cc4cc(Br)ccc4[nH]3)c2)ccc1CCC(=O)O

>  <IC50_nM>
8

>  <Assay Description>
Displacement of [3H]2-methyl-2-(4-{3-{propyl-(5-pyridin-2-yl-thiophene-2-sulfonyl)-amino}-propyl}-phenoxy)-propionic acid from human PPARgamma

$$$$
CHEMBL484138
Actelion Java MolfileCreator 2.0

  0  0  0  0  0  0              0 V3000
M  V30 BEGIN CTAB
M  V30 COUNTS 33 36 0 0 0
M  V30 BEGIN ATOM
M  V30 1 S 4.1222 -2.9781 0.0 0
M  V30 2 C 4.3301 -2.0 0.0 0
M  V30 3 C 3.1276 -3.0826 0.0 0
M  V30 4 C 5.1961 -1.4999 0.0 0
M  V30 5 C 3.4641 -1.5 0.0 0
M  V30 6 C 2.7209 -2.1691 0.0 0
M  V30 7 C 5.1961 -0.4999 0.0 0
M  V30 8 C 6.0621 -1.9999 0.0 0
M  V30 9 C 3.4641 -0.5 0.0 0
M  V30 10 C 4.3301 0.0 0.0 0
M  V30 11 C 6.9282 -1.5 0.0 0 CFG=2
M  V30 12 O 2.598 0.0 0.0 0
M  V30 13 O 6.9282 -0.5 0.0 0
M  V30 14 C 7.7942 -2.0 0.0 0
M  V30 15 C 1.732 -0.5 0.0 0
M  V30 16 C 6.0621 0.0 0.0 0
M  V30 17 O 7.7942 -3.0 0.0 0
M  V30 18 O 8.6602 -1.5 0.0 0
M  V30 19 C 0.866 0.0 0.0 0
M  V30 20 C 0.0 -0.5 0.0 0
M  V30 21 N -0.9135 -0.0932 0.0 0
M  V30 22 C -0.1045 -1.4945 0.0 0
M  V30 23 C -1.5826 -0.8364 0.0 0
M  V30 24 O -1.0826 -1.7024 0.0 0
M  V30 25 C 0.6386 -2.1636 0.0 0
M  V30 26 C -2.5771 -0.7318 0.0 0
M  V30 27 C -2.9839 0.1816 0.0 0
M  V30 28 C -3.1649 -1.5408 0.0 0
M  V30 29 C -3.9784 0.2861 0.0 0
M  V30 30 C -4.1595 -1.4363 0.0 0
M  V30 31 C -4.5662 -0.5228 0.0 0
M  V30 32 C -4.3851 1.1997 0.0 0
M  V30 33 C -4.7472 -2.2453 0.0 0
M  V30 END ATOM
M  V30 BEGIN BOND
M  V30 1 1 1 2
M  V30 2 1 1 3
M  V30 3 2 2 4
M  V30 4 1 2 5
M  V30 5 2 3 6
M  V30 6 1 4 7
M  V30 7 1 4 8
M  V30 8 2 5 9
M  V30 9 2 7 10
M  V30 10 1 8 11
M  V30 11 1 9 12
M  V30 12 1 11 13 CFG=3
M  V30 13 1 11 14
M  V30 14 1 12 15
M  V30 15 1 13 16
M  V30 16 2 14 17
M  V30 17 1 14 18
M  V30 18 1 15 19
M  V30 19 1 19 20
M  V30 20 1 20 21
M  V30 21 2 20 22
M  V30 22 2 21 23
M  V30 23 1 22 24
M  V30 24 1 22 25
M  V30 25 1 23 26
M  V30 26 2 26 27
M  V30 27 1 26 28
M  V30 28 1 27 29
M  V30 29 2 28 30
M  V30 30 2 29 31
M  V30 31 1 29 32
M  V30 32 1 30 33
M  V30 33 1 5 6
M  V30 34 1 9 10
M  V30 35 1 23 24
M  V30 36 1 30 31
M  V30 END BOND
M  V30 BEGIN COLLECTION
M  V30 MDLV30/STEABS ATOMS=(1 11)
M  V30 END COLLECTION
M  V30 END CTAB
M  END
>  <Molecule ChEMBL ID>
CHEMBL484138

>  <Smiles>
CO[C@@H](Cc1ccc(OCCc2nc(-c3cc(C)cc(C)c3)oc2C)c2ccsc12)C(=O)O

>  <IC50_nM>
8

>  <Assay Description>
Displacement of radio labeled 2(S)-(2-benzoyl-phenylamino)-3-{4-[1,1-ditritio-2-(5-methyl-2-phenyl-oxazol-4-yl)-ethoxy]-phenyl}-propionic acid from GST-fused human PPARgamma expressed in Escherichia coli BL21 cells by scintillation proximity assay

$$$$
CHEMBL3699412
Actelion Java MolfileCreator 2.0

  0  0  0  0  0  0              0 V3000
M  V30 BEGIN CTAB
M  V30 COUNTS 39 43 0 0 0
M  V30 BEGIN ATOM
M  V30 1 Br 4.3301 -2.9999 0.0 0
M  V30 2 C 4.3301 -1.9999 0.0 0
M  V30 3 N 5.1961 -1.5 0.0 0
M  V30 4 C 3.4641 -1.5 0.0 0
M  V30 5 C 5.1961 -0.5 0.0 0
M  V30 6 C 3.4641 -0.5 0.0 0
M  V30 7 C 4.3301 0.0 0.0 0
M  V30 8 C 2.598 0.0 0.0 0 CFG=2
M  V30 9 N 1.732 -0.5 0.0 0
M  V30 10 C 2.598 1.0 0.0 0
M  V30 11 C 0.866 0.0 0.0 0
M  V30 12 O 0.866 1.0 0.0 0
M  V30 13 C 0.0 -0.5 0.0 0
M  V30 14 C 0.0 -1.4999 0.0 0
M  V30 15 C -0.866 0.0 0.0 0
M  V30 16 C -0.866 -1.9999 0.0 0
M  V30 17 C -1.732 -0.4999 0.0 0
M  V30 18 C -1.732 -1.4999 0.0 0
M  V30 19 C -1.0739 -2.9781 0.0 0
M  V30 20 N -2.4751 -2.1691 0.0 0
M  V30 21 C -2.0684 -3.0826 0.0 0
M  V30 22 C -0.4048 -3.7212 0.0 0
M  V30 23 C -3.4533 -1.9612 0.0 0
M  V30 24 C -2.5684 -3.9487 0.0 0
M  V30 25 C -4.1224 -2.7043 0.0 0
M  V30 26 C -5.1006 -2.4964 0.0 0
M  V30 27 C -3.8134 -3.6554 0.0 0
M  V30 28 C -5.7697 -3.2395 0.0 0
M  V30 29 C -4.4825 -4.3985 0.0 0
M  V30 30 C -5.4607 -4.1906 0.0 0
M  V30 31 C -6.1298 -4.9337 0.0 0
M  V30 32 C -7.108 -4.7258 0.0 0
M  V30 33 C -5.8208 -5.8848 0.0 0
M  V30 34 C -7.417 -3.7748 0.0 0
M  V30 35 C -7.7771 -5.469 0.0 0
M  V30 36 C -6.4899 -6.6279 0.0 0
M  V30 37 O -6.7478 -3.0316 0.0 0
M  V30 38 O -8.3951 -3.5669 0.0 0
M  V30 39 C -7.4681 -6.42 0.0 0
M  V30 END ATOM
M  V30 BEGIN BOND
M  V30 1 1 1 2
M  V30 2 2 2 3
M  V30 3 1 2 4
M  V30 4 1 3 5
M  V30 5 2 4 6
M  V30 6 2 5 7
M  V30 7 1 6 8
M  V30 8 1 8 9
M  V30 9 1 8 10 CFG=3
M  V30 10 1 9 11
M  V30 11 2 11 12
M  V30 12 1 11 13
M  V30 13 2 13 14
M  V30 14 1 13 15
M  V30 15 1 14 16
M  V30 16 2 15 17
M  V30 17 2 16 18
M  V30 18 1 16 19
M  V30 19 1 18 20
M  V30 20 2 19 21
M  V30 21 1 19 22
M  V30 22 1 20 23
M  V30 23 1 21 24
M  V30 24 1 23 25
M  V30 25 2 25 26
M  V30 26 1 25 27
M  V30 27 1 26 28
M  V30 28 2 27 29
M  V30 29 2 28 30
M  V30 30 1 30 31
M  V30 31 2 31 32
M  V30 32 1 31 33
M  V30 33 1 32 34
M  V30 34 1 32 35
M  V30 35 2 33 36
M  V30 36 2 34 37
M  V30 37 1 34 38
M  V30 38 2 35 39
M  V30 39 1 6 7
M  V30 40 1 17 18
M  V30 41 1 20 21
M  V30 42 1 29 30
M  V30 43 1 36 39
M  V30 END BOND
M  V30 BEGIN COLLECTION
M  V30 MDLV30/STEABS ATOMS=(1 8)
M  V30 END COLLECTION
M  V30 END CTAB
M  END
>  <Molecule ChEMBL ID>
CHEMBL3699412

>  <Smiles>
Cc1c(C)n(Cc2ccc(-c3ccccc3C(=O)O)cc2)c2ccc(C(=O)N[C@H](C)c3ccnc(Br)c3)cc12

>  <IC50_nM>
8

>  <Assay Description>
Lanthascreen Competitive Binding Assay: The assay was performed according to manufacturer protocol. A mixture of nM GST-PPARG-LBD, 5 nM Tb-GST-antibody, 5 nM Fluormone Pan-PPAR Green, and serial dilutions of the experimental compound, beginning at 10 ׬M downwards, was added to wells of black 384-well low-volume plates (Greiner) to a total volume of 18 ׬L. All dilutions were made in TR-FRET assay buffer C. DMSO at 2% final concentration was used as a no-ligand control. Experiment was performed in triplicate, and incubated for 2 hours in the dark prior to assay read in Perkin Elmer ViewLux ultra HTS microplate reader. FRET signal was measured by excitation at 340 nm and emission at 520 nm for fluorescein and 490 nm for terbium. Fold change over DMSO was calculated using GraphPad Prism Software (La Jolla, Calif.) by calculating 520 nm/490 nm ratio. Graphs were plotted as fold change of FRET signal for compound treatment over DMSO-only control.

$$$$
CHEMBL3695886
Actelion Java MolfileCreator 2.0

  0  0  0  0  0  0              0 V3000
M  V30 BEGIN CTAB
M  V30 COUNTS 38 42 0 0 0
M  V30 BEGIN ATOM
M  V30 1 O 2.598 -0.75 0.0 0
M  V30 2 C 3.8971 0.0 0.0 0
M  V30 3 N 5.1961 -0.7499 0.0 0
M  V30 4 C 3.8971 1.5 0.0 0
M  V30 5 C 6.4951 0.0 0.0 0 CFG=2
M  V30 6 C 2.598 2.25 0.0 0
M  V30 7 C 5.1961 2.25 0.0 0
M  V30 8 C 7.7942 -0.7499 0.0 0
M  V30 9 C 6.4951 1.5 0.0 0
M  V30 10 C 2.598 3.75 0.0 0
M  V30 11 C 5.1961 3.75 0.0 0
M  V30 12 C 7.7942 -2.2499 0.0 0
M  V30 13 C 9.0932 0.0 0.0 0
M  V30 14 C 3.8971 4.5 0.0 0
M  V30 15 C 1.4833 4.7536 0.0 0
M  V30 16 C 9.0932 -2.9999 0.0 0
M  V30 17 C 10.3923 -0.7499 0.0 0
M  V30 18 N 3.5852 5.9672 0.0 0
M  V30 19 C 2.0934 6.124 0.0 0
M  V30 20 C 0.0161 4.4418 0.0 0
M  V30 21 C 10.3923 -2.2499 0.0 0
M  V30 22 C 4.5889 7.0819 0.0 0
M  V30 23 C 1.3434 7.423 0.0 0
M  V30 24 C 11.6913 -2.9999 0.0 0
M  V30 25 C 4.1254 8.5085 0.0 0
M  V30 26 C 11.6913 -4.4999 0.0 0
M  V30 27 C 12.9903 -2.2499 0.0 0
M  V30 28 C 5.1291 9.6232 0.0 0
M  V30 29 C 2.6581 8.8203 0.0 0
M  V30 30 C 4.6655 11.0498 0.0 0
M  V30 31 C 2.1946 10.2469 0.0 0
M  V30 32 C 3.1983 11.3616 0.0 0
M  V30 33 C 2.7348 12.7882 0.0 0
M  V30 34 C 3.7385 13.9029 0.0 0
M  V30 35 C 1.2676 13.1001 0.0 0
M  V30 36 C 3.275 15.3295 0.0 0
M  V30 37 C 0.804 14.5267 0.0 0
M  V30 38 C 1.8077 15.6414 0.0 0
M  V30 END ATOM
M  V30 BEGIN BOND
M  V30 1 2 1 2
M  V30 2 1 2 3
M  V30 3 1 2 4
M  V30 4 1 3 5
M  V30 5 2 4 6
M  V30 6 1 4 7
M  V30 7 1 5 8
M  V30 8 1 5 9 CFG=1
M  V30 9 1 6 10
M  V30 10 2 7 11
M  V30 11 2 8 12
M  V30 12 1 8 13
M  V30 13 2 10 14
M  V30 14 1 10 15
M  V30 15 1 12 16
M  V30 16 2 13 17
M  V30 17 1 14 18
M  V30 18 2 15 19
M  V30 19 1 15 20
M  V30 20 2 16 21
M  V30 21 1 18 22
M  V30 22 1 19 23
M  V30 23 1 21 24
M  V30 24 1 22 25
M  V30 25 1 24 26
M  V30 26 1 24 27
M  V30 27 2 25 28
M  V30 28 1 25 29
M  V30 29 1 28 30
M  V30 30 2 29 31
M  V30 31 2 30 32
M  V30 32 1 32 33
M  V30 33 2 33 34
M  V30 34 1 33 35
M  V30 35 1 34 36
M  V30 36 2 35 37
M  V30 37 2 36 38
M  V30 38 1 11 14
M  V30 39 1 17 21
M  V30 40 1 18 19
M  V30 41 1 31 32
M  V30 42 1 37 38
M  V30 END BOND
M  V30 BEGIN COLLECTION
M  V30 MDLV30/STEABS ATOMS=(1 5)
M  V30 END COLLECTION
M  V30 END CTAB
M  END
>  <Molecule ChEMBL ID>
CHEMBL3695886

>  <Smiles>
Cc1c(C)n(Cc2ccc(-c3ccccc3)cc2)c2ccc(C(=O)N[C@@H](C)c3ccc(C(C)C)cc3)cc12

>  <IC50_nM>
8

>  <Assay Description>
Lanthascreen Competitive Binding Assay: The assay was performed according to manufacturer protocol. A mixture of nM GST-PPARG-LBD, 5 nM Tb-GST-antibody, 5 nM Fluormone Pan-PPAR Green, and serial dilutions of the experimental compound, beginning at 10 ׬M downwards, was added to wells of black 384-well low-volume plates (Greiner) to a total volume of 18 ׬L. All dilutions were made in TR-FRET assay buffer C. DMSO at 2% final concentration was used as a no-ligand control. Experiment was performed in triplicate, and incubated for 2 hours in the dark prior to assay read in Perkin Elmer ViewLux ultra HTS microplate reader. FRET signal was measured by excitation at 340 nm and emission at 520 nm for fluorescein and 490 nm for terbium. Fold change over DMSO was calculated using GraphPad Prism Software (La Jolla, Calif.) by calculating 520 nm/490 nm ratio. Graphs were plotted as fold change of FRET signal for compound treatment over DMSO-only control.

$$$$
CHEMBL392717
Actelion Java MolfileCreator 2.0

  0  0  0  0  0  0              0 V3000
M  V30 BEGIN CTAB
M  V30 COUNTS 37 39 0 0 0
M  V30 BEGIN ATOM
M  V30 1 F 6.4951 1.5 0.0 0
M  V30 2 C 6.4951 0.0 0.0 0
M  V30 3 C 5.1961 -0.75 0.0 0
M  V30 4 C 7.7942 -0.75 0.0 0
M  V30 5 C 3.8971 0.0 0.0 0
M  V30 6 C 5.1961 -2.25 0.0 0
M  V30 7 C 7.7942 -2.25 0.0 0
M  V30 8 O 3.8971 1.5 0.0 0
M  V30 9 N 2.598 -0.75 0.0 0
M  V30 10 C 6.4951 -3.0 0.0 0
M  V30 11 C 9.0932 -3.0 0.0 0
M  V30 12 C 1.299 0.0 0.0 0
M  V30 13 F 9.8432 -1.7009 0.0 0
M  V30 14 F 10.3923 -3.75 0.0 0
M  V30 15 F 8.3432 -4.299 0.0 0
M  V30 16 C 0.0 -0.75 0.0 0
M  V30 17 C -1.299 0.0 0.0 0
M  V30 18 C 0.0 -2.25 0.0 0
M  V30 19 C -2.598 -0.75 0.0 0
M  V30 20 C -1.299 -3.0 0.0 0
M  V30 21 F -3.8971 0.0 0.0 0
M  V30 22 C -2.598 -2.25 0.0 0
M  V30 23 O -1.299 -4.5 0.0 0
M  V30 24 C 0.0 -5.25 0.0 0
M  V30 25 C 0.0 -6.75 0.0 0
M  V30 26 C 1.299 -4.5 0.0 0
M  V30 27 C 1.299 -7.5 0.0 0
M  V30 28 C 2.598 -5.25 0.0 0
M  V30 29 C 2.598 -6.75 0.0 0
M  V30 30 C 1.299 -9.0 0.0 0
M  V30 31 O 3.8971 -7.5 0.0 0
M  V30 32 C 5.1961 -6.75 0.0 0
M  V30 33 C 6.4951 -7.5 0.0 0
M  V30 34 C 5.9461 -5.451 0.0 0
M  V30 35 C 4.4461 -5.451 0.0 0
M  V30 36 O 6.4951 -9.0 0.0 0
M  V30 37 O 7.7942 -6.75 0.0 0
M  V30 END ATOM
M  V30 BEGIN BOND
M  V30 1 1 1 2
M  V30 2 2 2 3
M  V30 3 1 2 4
M  V30 4 1 3 5
M  V30 5 1 3 6
M  V30 6 2 4 7
M  V30 7 2 5 8
M  V30 8 1 5 9
M  V30 9 2 6 10
M  V30 10 1 7 11
M  V30 11 1 9 12
M  V30 12 1 11 13
M  V30 13 1 11 14
M  V30 14 1 11 15
M  V30 15 1 12 16
M  V30 16 2 16 17
M  V30 17 1 16 18
M  V30 18 1 17 19
M  V30 19 2 18 20
M  V30 20 1 19 21
M  V30 21 2 19 22
M  V30 22 1 20 23
M  V30 23 1 23 24
M  V30 24 2 24 25
M  V30 25 1 24 26
M  V30 26 1 25 27
M  V30 27 2 26 28
M  V30 28 2 27 29
M  V30 29 1 27 30
M  V30 30 1 29 31
M  V30 31 1 31 32
M  V30 32 1 32 33
M  V30 33 1 32 34
M  V30 34 1 32 35
M  V30 35 2 33 36
M  V30 36 1 33 37
M  V30 37 1 7 10
M  V30 38 1 20 22
M  V30 39 1 28 29
M  V30 END BOND
M  V30 END CTAB
M  END
>  <Molecule ChEMBL ID>
CHEMBL392717

>  <Smiles>
Cc1cc(Oc2cc(F)cc(CNC(=O)c3ccc(C(F)(F)F)cc3F)c2)ccc1OC(C)(C)C(=O)O

>  <IC50_nM>
8

>  <Assay Description>
Displacement of [3H]2-methyl-2-(4-{3-{propyl-(5-pyridin-2-yl-thiophene-2-sulfonyl)-amino}-propyl}-phenoxy)-propionic acid from human PPARgamma

$$$$
CHEMBL3699428
Actelion Java MolfileCreator 2.0

  0  0  0  0  0  0              0 V3000
M  V30 BEGIN CTAB
M  V30 COUNTS 41 45 0 0 0
M  V30 BEGIN ATOM
M  V30 1 F 6.0621 -1.9999 0.0 0
M  V30 2 C 5.1961 -1.4999 0.0 0
M  V30 3 C 5.1961 -0.5 0.0 0
M  V30 4 C 4.3301 -1.9999 0.0 0
M  V30 5 F 6.0621 0.0 0.0 0
M  V30 6 C 4.3301 0.0 0.0 0
M  V30 7 C 3.4641 -1.5 0.0 0
M  V30 8 C 3.4641 -0.5 0.0 0
M  V30 9 F 2.598 -2.0 0.0 0
M  V30 10 C 2.598 0.0 0.0 0 CFG=1
M  V30 11 N 1.732 -0.5 0.0 0
M  V30 12 C 2.598 1.0 0.0 0
M  V30 13 C 0.866 0.0 0.0 0
M  V30 14 O 0.866 1.0 0.0 0
M  V30 15 C 0.0 -0.5 0.0 0
M  V30 16 C 0.0 -1.4999 0.0 0
M  V30 17 C -0.866 0.0 0.0 0
M  V30 18 C -0.866 -1.9999 0.0 0
M  V30 19 C -1.732 -0.4999 0.0 0
M  V30 20 C -1.732 -1.4999 0.0 0
M  V30 21 C -1.0739 -2.9781 0.0 0
M  V30 22 N -2.4751 -2.1691 0.0 0
M  V30 23 C -2.0684 -3.0826 0.0 0
M  V30 24 C -0.4048 -3.7212 0.0 0
M  V30 25 C -3.4533 -1.9612 0.0 0
M  V30 26 C -2.5684 -3.9487 0.0 0
M  V30 27 C -4.1224 -2.7043 0.0 0
M  V30 28 C -5.1006 -2.4964 0.0 0
M  V30 29 C -3.8134 -3.6554 0.0 0
M  V30 30 C -5.7697 -3.2395 0.0 0
M  V30 31 C -4.4825 -4.3985 0.0 0
M  V30 32 C -5.4607 -4.1906 0.0 0
M  V30 33 C -6.1298 -4.9337 0.0 0
M  V30 34 C -7.108 -4.7258 0.0 0
M  V30 35 C -5.8208 -5.8848 0.0 0
M  V30 36 C -7.417 -3.7748 0.0 0
M  V30 37 C -7.7771 -5.469 0.0 0
M  V30 38 C -6.4899 -6.6279 0.0 0
M  V30 39 O -6.7478 -3.0316 0.0 0
M  V30 40 O -8.3951 -3.5669 0.0 0
M  V30 41 C -7.4681 -6.42 0.0 0
M  V30 END ATOM
M  V30 BEGIN BOND
M  V30 1 1 1 2
M  V30 2 2 2 3
M  V30 3 1 2 4
M  V30 4 1 3 5
M  V30 5 1 3 6
M  V30 6 2 4 7
M  V30 7 2 6 8
M  V30 8 1 7 9
M  V30 9 1 8 10
M  V30 10 1 10 11
M  V30 11 1 10 12 CFG=1
M  V30 12 1 11 13
M  V30 13 2 13 14
M  V30 14 1 13 15
M  V30 15 2 15 16
M  V30 16 1 15 17
M  V30 17 1 16 18
M  V30 18 2 17 19
M  V30 19 2 18 20
M  V30 20 1 18 21
M  V30 21 1 20 22
M  V30 22 2 21 23
M  V30 23 1 21 24
M  V30 24 1 22 25
M  V30 25 1 23 26
M  V30 26 1 25 27
M  V30 27 2 27 28
M  V30 28 1 27 29
M  V30 29 1 28 30
M  V30 30 2 29 31
M  V30 31 2 30 32
M  V30 32 1 32 33
M  V30 33 2 33 34
M  V30 34 1 33 35
M  V30 35 1 34 36
M  V30 36 1 34 37
M  V30 37 2 35 38
M  V30 38 2 36 39
M  V30 39 1 36 40
M  V30 40 2 37 41
M  V30 41 1 7 8
M  V30 42 1 19 20
M  V30 43 1 22 23
M  V30 44 1 31 32
M  V30 45 1 38 41
M  V30 END BOND
M  V30 BEGIN COLLECTION
M  V30 MDLV30/STEABS ATOMS=(1 10)
M  V30 END COLLECTION
M  V30 END CTAB
M  END
>  <Molecule ChEMBL ID>
CHEMBL3699428

>  <Smiles>
Cc1c(C)n(Cc2ccc(-c3ccccc3C(=O)O)cc2)c2ccc(C(=O)N[C@@H](C)c3cc(F)c(F)cc3F)cc12

>  <IC50_nM>
8

>  <Assay Description>
Lanthascreen Competitive Binding Assay: The assay was performed according to manufacturer protocol. A mixture of nM GST-PPARG-LBD, 5 nM Tb-GST-antibody, 5 nM Fluormone Pan-PPAR Green, and serial dilutions of the experimental compound, beginning at 10 ׬M downwards, was added to wells of black 384-well low-volume plates (Greiner) to a total volume of 18 ׬L. All dilutions were made in TR-FRET assay buffer C. DMSO at 2% final concentration was used as a no-ligand control. Experiment was performed in triplicate, and incubated for 2 hours in the dark prior to assay read in Perkin Elmer ViewLux ultra HTS microplate reader. FRET signal was measured by excitation at 340 nm and emission at 520 nm for fluorescein and 490 nm for terbium. Fold change over DMSO was calculated using GraphPad Prism Software (La Jolla, Calif.) by calculating 520 nm/490 nm ratio. Graphs were plotted as fold change of FRET signal for compound treatment over DMSO-only control.

$$$$
CHEMBL560160
Actelion Java MolfileCreator 2.0

  0  0  0  0  0  0              0 V3000
M  V30 BEGIN CTAB
M  V30 COUNTS 39 42 0 0 0
M  V30 BEGIN ATOM
M  V30 1 Cl 10.2663 -0.4223 0.0 0
M  V30 2 C 9.8595 0.4912 0.0 0
M  V30 3 C 10.4473 1.3002 0.0 0
M  V30 4 C 8.865 0.5957 0.0 0
M  V30 5 C 10.0406 2.2138 0.0 0
M  V30 6 C 8.4583 1.5093 0.0 0
M  V30 7 C 9.0461 2.3183 0.0 0
M  V30 8 C 8.6393 3.2318 0.0 0
M  V30 9 O 9.2271 4.0408 0.0 0
M  V30 10 C 7.6448 3.3364 0.0 0
M  V30 11 C 7.1448 4.2024 0.0 0
M  V30 12 C 6.9757 2.5932 0.0 0
M  V30 13 C 6.1667 3.9945 0.0 0
M  V30 14 C 7.4538 5.1534 0.0 0
M  V30 15 N 6.0621 2.9999 0.0 0
M  V30 16 C 7.1836 1.6151 0.0 0
M  V30 17 C 5.4975 4.7376 0.0 0
M  V30 18 C 6.7847 5.8966 0.0 0
M  V30 19 C 5.1961 2.5 0.0 0
M  V30 20 C 5.8065 5.6887 0.0 0
M  V30 21 C 5.1961 1.4999 0.0 0
M  V30 22 O 5.1374 6.4318 0.0 0
M  V30 23 C 4.3301 1.0 0.0 0
M  V30 24 C 6.0621 0.9999 0.0 0
M  V30 25 C 4.1593 6.2239 0.0 0
M  V30 26 C 4.3301 0.0 0.0 0
M  V30 27 C 6.0621 0.0 0.0 0
M  V30 28 F 4.3672 5.2458 0.0 0
M  V30 29 F 3.1811 6.016 0.0 0
M  V30 30 F 3.9514 7.2021 0.0 0
M  V30 31 O 3.4641 -0.5 0.0 0
M  V30 32 C 5.1961 -0.5 0.0 0
M  V30 33 C 2.598 0.0 0.0 0 CFG=2
M  V30 34 C 2.598 1.0 0.0 0
M  V30 35 C 1.732 -0.5 0.0 0
M  V30 36 O 3.4641 1.4999 0.0 0
M  V30 37 O 1.732 1.5 0.0 0
M  V30 38 C 0.866 0.0 0.0 0
M  V30 39 C 0.0 -0.5 0.0 0
M  V30 END ATOM
M  V30 BEGIN BOND
M  V30 1 1 1 2
M  V30 2 2 2 3
M  V30 3 1 2 4
M  V30 4 1 3 5
M  V30 5 2 4 6
M  V30 6 2 5 7
M  V30 7 1 7 8
M  V30 8 2 8 9
M  V30 9 1 8 10
M  V30 10 1 10 11
M  V30 11 2 10 12
M  V30 12 2 11 13
M  V30 13 1 11 14
M  V30 14 1 12 15
M  V30 15 1 12 16
M  V30 16 1 13 17
M  V30 17 2 14 18
M  V30 18 1 15 19
M  V30 19 2 17 20
M  V30 20 1 19 21
M  V30 21 1 20 22
M  V30 22 2 21 23
M  V30 23 1 21 24
M  V30 24 1 22 25
M  V30 25 1 23 26
M  V30 26 2 24 27
M  V30 27 1 25 28
M  V30 28 1 25 29
M  V30 29 1 25 30
M  V30 30 1 26 31
M  V30 31 2 26 32
M  V30 32 1 33 31 CFG=1
M  V30 33 1 33 34
M  V30 34 1 33 35
M  V30 35 2 34 36
M  V30 36 1 34 37
M  V30 37 1 35 38
M  V30 38 1 38 39
M  V30 39 1 6 7
M  V30 40 1 13 15
M  V30 41 1 18 20
M  V30 42 1 27 32
M  V30 END BOND
M  V30 BEGIN COLLECTION
M  V30 MDLV30/STEABS ATOMS=(1 33)
M  V30 END COLLECTION
M  V30 END CTAB
M  END
>  <Molecule ChEMBL ID>
CHEMBL560160

>  <Smiles>
CCC[C@H](Oc1cccc(Cn2c(C)c(C(=O)c3ccc(Cl)cc3)c3ccc(OC(F)(F)F)cc32)c1)C(=O)O

>  <IC50_nM>
8

>  <Assay Description>
Inhibition of human PPARgamma receptor by scintillation proximity assay

$$$$
CHEMBL508299
Actelion Java MolfileCreator 2.0

  0  0  0  0  0  0              0 V3000
M  V30 BEGIN CTAB
M  V30 COUNTS 42 46 0 0 0
M  V30 BEGIN ATOM
M  V30 1 F 3.8301 0.866 0.0 0
M  V30 2 C 4.3301 0.0 0.0 0
M  V30 3 F 5.1961 0.4999 0.0 0
M  V30 4 F 4.8301 -0.866 0.0 0
M  V30 5 C 3.4641 -0.5 0.0 0
M  V30 6 O 2.598 0.0 0.0 0
M  V30 7 C 1.732 -0.5 0.0 0 CFG=2
M  V30 8 C 1.732 -1.5 0.0 0
M  V30 9 C 0.866 0.0 0.0 0
M  V30 10 O 0.866 -2.0 0.0 0
M  V30 11 O 2.598 -1.9999 0.0 0
M  V30 12 C 0.0 -0.5 0.0 0
M  V30 13 C -0.866 0.0 0.0 0
M  V30 14 C 0.0 -1.4999 0.0 0
M  V30 15 C -1.732 -0.4999 0.0 0
M  V30 16 C -0.866 1.0 0.0 0
M  V30 17 C -0.866 -1.9999 0.0 0
M  V30 18 C -1.732 -1.4999 0.0 0
M  V30 19 C -2.598 0.0 0.0 0
M  V30 20 C -1.732 1.5 0.0 0
M  V30 21 O -2.598 -1.9999 0.0 0
M  V30 22 C -2.598 1.0 0.0 0
M  V30 23 C -2.598 -2.9999 0.0 0
M  V30 24 C -3.4641 -3.4999 0.0 0
M  V30 25 C -3.4641 -4.4999 0.0 0
M  V30 26 N -4.2731 -5.0877 0.0 0
M  V30 27 C -2.655 -5.0877 0.0 0
M  V30 28 C -3.9641 -6.0388 0.0 0
M  V30 29 O -2.9641 -6.0388 0.0 0
M  V30 30 C -1.704 -4.7787 0.0 0
M  V30 31 C -4.5518 -6.8478 0.0 0
M  V30 32 C -5.5464 -6.7433 0.0 0
M  V30 33 C -4.1451 -7.7614 0.0 0
M  V30 34 C -6.1341 -7.5523 0.0 0
M  V30 35 C -4.7329 -8.5704 0.0 0
M  V30 36 C -5.7274 -8.4658 0.0 0
M  V30 37 C -6.3152 -9.2749 0.0 0
M  V30 38 C -7.3097 -9.1703 0.0 0
M  V30 39 C -5.9085 -10.1884 0.0 0
M  V30 40 C -7.8975 -9.9793 0.0 0
M  V30 41 C -6.4962 -10.9974 0.0 0
M  V30 42 C -7.4908 -10.8929 0.0 0
M  V30 END ATOM
M  V30 BEGIN BOND
M  V30 1 1 1 2
M  V30 2 1 2 3
M  V30 3 1 2 4
M  V30 4 1 2 5
M  V30 5 1 5 6
M  V30 6 1 7 6 CFG=3
M  V30 7 1 7 8
M  V30 8 1 7 9
M  V30 9 2 8 10
M  V30 10 1 8 11
M  V30 11 1 9 12
M  V30 12 1 12 13
M  V30 13 2 12 14
M  V30 14 1 13 15
M  V30 15 2 13 16
M  V30 16 1 14 17
M  V30 17 1 15 18
M  V30 18 2 15 19
M  V30 19 1 16 20
M  V30 20 1 18 21
M  V30 21 1 19 22
M  V30 22 1 21 23
M  V30 23 1 23 24
M  V30 24 1 24 25
M  V30 25 1 25 26
M  V30 26 2 25 27
M  V30 27 2 26 28
M  V30 28 1 27 29
M  V30 29 1 27 30
M  V30 30 1 28 31
M  V30 31 2 31 32
M  V30 32 1 31 33
M  V30 33 1 32 34
M  V30 34 2 33 35
M  V30 35 2 34 36
M  V30 36 1 36 37
M  V30 37 2 37 38
M  V30 38 1 37 39
M  V30 39 1 38 40
M  V30 40 2 39 41
M  V30 41 2 40 42
M  V30 42 2 17 18
M  V30 43 2 20 22
M  V30 44 1 28 29
M  V30 45 1 35 36
M  V30 46 1 41 42
M  V30 END BOND
M  V30 BEGIN COLLECTION
M  V30 MDLV30/STEABS ATOMS=(1 7)
M  V30 END COLLECTION
M  V30 END CTAB
M  END
>  <Molecule ChEMBL ID>
CHEMBL508299

>  <Smiles>
Cc1oc(-c2ccc(-c3ccccc3)cc2)nc1CCOc1ccc(C[C@H](OCC(F)(F)F)C(=O)O)c2ccccc12

>  <IC50_nM>
8

>  <Assay Description>
Displacement of radio labeled 2(S)-(2-benzoyl-phenylamino)-3-{4-[1,1-ditritio-2-(5-methyl-2-phenyl-oxazol-4-yl)-ethoxy]-phenyl}-propionic acid from GST-fused human PPARgamma expressed in Escherichia coli BL21 cells by scintillation proximity assay

$$$$
CHEMBL3736463
Actelion Java MolfileCreator 2.0

  0  0  0  0  0  0              0 V3000
M  V30 BEGIN CTAB
M  V30 COUNTS 43 48 0 0 0
M  V30 BEGIN ATOM
M  V30 1 O 11.8592 -3.5669 0.0 0
M  V30 2 C 10.8811 -3.7748 0.0 0
M  V30 3 O 10.212 -3.0316 0.0 0
M  V30 4 C 10.5721 -4.7258 0.0 0
M  V30 5 C 9.5939 -4.9337 0.0 0
M  V30 6 C 11.2412 -5.469 0.0 0
M  V30 7 C 8.9248 -4.1906 0.0 0
M  V30 8 C 9.2849 -5.8848 0.0 0
M  V30 9 C 10.9322 -6.42 0.0 0
M  V30 10 C 9.2338 -3.2395 0.0 0
M  V30 11 C 7.9466 -4.3985 0.0 0
M  V30 12 C 9.954 -6.6279 0.0 0
M  V30 13 C 8.5647 -2.4964 0.0 0
M  V30 14 C 7.2775 -3.6554 0.0 0
M  V30 15 C 7.5865 -2.7043 0.0 0
M  V30 16 C 6.9174 -1.9612 0.0 0
M  V30 17 N 5.9392 -2.1691 0.0 0
M  V30 18 C 5.1961 -1.4999 0.0 0
M  V30 19 C 5.5325 -3.0826 0.0 0
M  V30 20 C 4.3301 -1.9999 0.0 0
M  V30 21 C 5.1961 -0.4999 0.0 0
M  V30 22 C 4.538 -2.9781 0.0 0
M  V30 23 C 6.0325 -3.9487 0.0 0
M  V30 24 C 3.4641 -1.5 0.0 0
M  V30 25 C 4.3301 0.0 0.0 0
M  V30 26 C 3.8689 -3.7212 0.0 0
M  V30 27 C 3.4641 -0.5 0.0 0
M  V30 28 C 2.598 0.0 0.0 0
M  V30 29 O 2.598 1.0 0.0 0
M  V30 30 N 1.732 -0.5 0.0 0
M  V30 31 C 0.866 0.0 0.0 0 CFG=2
M  V30 32 C 0.866 1.0 0.0 0
M  V30 33 C 0.0 -0.5 0.0 0
M  V30 34 C 1.732 1.5 0.0 0
M  V30 35 C 0.0 1.4999 0.0 0
M  V30 36 C -1.0 -0.4999 0.0 0
M  V30 37 C -0.5 -1.366 0.0 0
M  V30 38 C 1.732 2.5 0.0 0
M  V30 39 C 0.0 2.5 0.0 0
M  V30 40 C 0.866 2.9999 0.0 0
M  V30 41 C 2.598 3.0 0.0 0
M  V30 42 C 3.4641 2.5 0.0 0
M  V30 43 C 2.598 4.0 0.0 0
M  V30 END ATOM
M  V30 BEGIN BOND
M  V30 1 2 1 2
M  V30 2 1 2 3
M  V30 3 1 2 4
M  V30 4 2 4 5
M  V30 5 1 4 6
M  V30 6 1 5 7
M  V30 7 1 5 8
M  V30 8 2 6 9
M  V30 9 2 7 10
M  V30 10 1 7 11
M  V30 11 2 8 12
M  V30 12 1 10 13
M  V30 13 2 11 14
M  V30 14 2 13 15
M  V30 15 1 15 16
M  V30 16 1 16 17
M  V30 17 1 17 18
M  V30 18 1 17 19
M  V30 19 2 18 20
M  V30 20 1 18 21
M  V30 21 2 19 22
M  V30 22 1 19 23
M  V30 23 1 20 24
M  V30 24 2 21 25
M  V30 25 1 22 26
M  V30 26 2 24 27
M  V30 27 1 27 28
M  V30 28 2 28 29
M  V30 29 1 28 30
M  V30 30 1 31 30 CFG=1
M  V30 31 1 31 32
M  V30 32 1 31 33
M  V30 33 2 32 34
M  V30 34 1 32 35
M  V30 35 1 33 36
M  V30 36 1 33 37
M  V30 37 1 34 38
M  V30 38 2 35 39
M  V30 39 2 38 40
M  V30 40 1 38 41
M  V30 41 1 41 42
M  V30 42 1 41 43
M  V30 43 1 9 12
M  V30 44 1 14 15
M  V30 45 1 20 22
M  V30 46 1 25 27
M  V30 47 1 36 37
M  V30 48 1 39 40
M  V30 END BOND
M  V30 BEGIN COLLECTION
M  V30 MDLV30/STEABS ATOMS=(1 31)
M  V30 END COLLECTION
M  V30 END CTAB
M  END
>  <Molecule ChEMBL ID>
CHEMBL3736463

>  <Smiles>
Cc1c(C)n(Cc2ccc(-c3ccccc3C(=O)O)cc2)c2ccc(C(=O)N[C@H](c3cccc(C(C)C)c3)C3CC3)cc12

>  <IC50_nM>
8

>  <Assay Description>
Binding affinity to GST-tagged PPAR-gamma-LBD (unknown origin) after 2 hrs by Lantha screen assay using fluormone Pan-PPAR green probe

$$$$
CHEMBL3695863
Actelion Java MolfileCreator 2.0

  0  0  0  0  0  0              0 V3000
M  V30 BEGIN CTAB
M  V30 COUNTS 40 45 0 0 0
M  V30 BEGIN ATOM
M  V30 1 O 5.1961 -0.7499 0.0 0
M  V30 2 C 3.8971 0.0 0.0 0
M  V30 3 N 2.598 -0.7499 0.0 0
M  V30 4 C 3.8971 1.5 0.0 0
M  V30 5 C 2.598 -2.2499 0.0 0 CFG=2
M  V30 6 C 2.598 2.25 0.0 0
M  V30 7 C 5.1961 2.25 0.0 0
M  V30 8 C 1.299 -3.0 0.0 0
M  V30 9 C 3.8971 -2.9999 0.0 0
M  V30 10 C 2.598 3.75 0.0 0
M  V30 11 C 5.1961 3.75 0.0 0
M  V30 12 C 0.0 -2.25 0.0 0
M  V30 13 C 1.299 -4.4999 0.0 0
M  V30 14 C 4.6471 -4.299 0.0 0
M  V30 15 C 5.3971 -3.0 0.0 0
M  V30 16 C 3.8971 4.5 0.0 0
M  V30 17 C 1.4833 4.7536 0.0 0
M  V30 18 C -1.299 -3.0 0.0 0
M  V30 19 C 0.0 -5.25 0.0 0
M  V30 20 N 3.5852 5.9672 0.0 0
M  V30 21 C 2.0934 6.124 0.0 0
M  V30 22 C 0.0161 4.4418 0.0 0
M  V30 23 C -1.299 -4.4999 0.0 0
M  V30 24 C -2.598 -2.25 0.0 0
M  V30 25 C 4.5889 7.0819 0.0 0
M  V30 26 C 1.3434 7.423 0.0 0
M  V30 27 C -2.598 -0.75 0.0 0
M  V30 28 C -3.8971 -3.0 0.0 0
M  V30 29 C 4.1254 8.5085 0.0 0
M  V30 30 C 5.1291 9.6232 0.0 0
M  V30 31 C 2.6581 8.8203 0.0 0
M  V30 32 C 4.6655 11.0498 0.0 0
M  V30 33 C 2.1946 10.2469 0.0 0
M  V30 34 C 3.1983 11.3616 0.0 0
M  V30 35 C 2.7348 12.7882 0.0 0
M  V30 36 C 3.7385 13.9029 0.0 0
M  V30 37 C 1.2676 13.1001 0.0 0
M  V30 38 C 3.275 15.3295 0.0 0
M  V30 39 C 0.804 14.5267 0.0 0
M  V30 40 C 1.8077 15.6414 0.0 0
M  V30 END ATOM
M  V30 BEGIN BOND
M  V30 1 2 1 2
M  V30 2 1 2 3
M  V30 3 1 2 4
M  V30 4 1 5 3 CFG=1
M  V30 5 2 4 6
M  V30 6 1 4 7
M  V30 7 1 5 8
M  V30 8 1 5 9
M  V30 9 1 6 10
M  V30 10 2 7 11
M  V30 11 2 8 12
M  V30 12 1 8 13
M  V30 13 1 9 14
M  V30 14 1 9 15
M  V30 15 2 10 16
M  V30 16 1 10 17
M  V30 17 1 12 18
M  V30 18 2 13 19
M  V30 19 1 16 20
M  V30 20 2 17 21
M  V30 21 1 17 22
M  V30 22 2 18 23
M  V30 23 1 18 24
M  V30 24 1 20 25
M  V30 25 1 21 26
M  V30 26 1 24 27
M  V30 27 1 24 28
M  V30 28 1 25 29
M  V30 29 2 29 30
M  V30 30 1 29 31
M  V30 31 1 30 32
M  V30 32 2 31 33
M  V30 33 2 32 34
M  V30 34 1 34 35
M  V30 35 2 35 36
M  V30 36 1 35 37
M  V30 37 1 36 38
M  V30 38 2 37 39
M  V30 39 2 38 40
M  V30 40 1 11 16
M  V30 41 1 14 15
M  V30 42 1 19 23
M  V30 43 1 20 21
M  V30 44 1 33 34
M  V30 45 1 39 40
M  V30 END BOND
M  V30 BEGIN COLLECTION
M  V30 MDLV30/STEABS ATOMS=(1 5)
M  V30 END COLLECTION
M  V30 END CTAB
M  END
>  <Molecule ChEMBL ID>
CHEMBL3695863

>  <Smiles>
Cc1c(C)n(Cc2ccc(-c3ccccc3)cc2)c2ccc(C(=O)N[C@H](c3cccc(C(C)C)c3)C3CC3)cc12

>  <IC50_nM>
8

>  <Assay Description>
Lanthascreen Competitive Binding Assay: The assay was performed according to manufacturer protocol. A mixture of nM GST-PPARG-LBD, 5 nM Tb-GST-antibody, 5 nM Fluormone Pan-PPAR Green, and serial dilutions of the experimental compound, beginning at 10 ׬M downwards, was added to wells of black 384-well low-volume plates (Greiner) to a total volume of 18 ׬L. All dilutions were made in TR-FRET assay buffer C. DMSO at 2% final concentration was used as a no-ligand control. Experiment was performed in triplicate, and incubated for 2 hours in the dark prior to assay read in Perkin Elmer ViewLux ultra HTS microplate reader. FRET signal was measured by excitation at 340 nm and emission at 520 nm for fluorescein and 490 nm for terbium. Fold change over DMSO was calculated using GraphPad Prism Software (La Jolla, Calif.) by calculating 520 nm/490 nm ratio. Graphs were plotted as fold change of FRET signal for compound treatment over DMSO-only control.

$$$$
CHEMBL237306
Actelion Java MolfileCreator 2.0

  0  0  0  0  0  0              0 V3000
M  V30 BEGIN CTAB
M  V30 COUNTS 34 36 0 0 0
M  V30 BEGIN ATOM
M  V30 1 O 5.1961 -0.75 0.0 0
M  V30 2 C 3.8971 0.0 0.0 0
M  V30 3 N 2.598 -0.75 0.0 0
M  V30 4 C 3.8971 1.5 0.0 0
M  V30 5 C 1.299 0.0 0.0 0
M  V30 6 C 5.1961 2.25 0.0 0
M  V30 7 C 2.598 2.25 0.0 0
M  V30 8 C 0.0 -0.75 0.0 0
M  V30 9 C 5.1961 3.75 0.0 0
M  V30 10 C 6.4951 1.5 0.0 0
M  V30 11 C 2.598 3.75 0.0 0
M  V30 12 C -1.299 0.0 0.0 0
M  V30 13 C 0.0 -2.25 0.0 0
M  V30 14 C 3.8971 4.5 0.0 0
M  V30 15 C -2.598 -0.75 0.0 0
M  V30 16 C -1.299 -3.0 0.0 0
M  V30 17 O 3.8971 6.0 0.0 0
M  V30 18 O -3.8971 0.0 0.0 0
M  V30 19 C -2.598 -2.25 0.0 0
M  V30 20 C 2.598 6.75 0.0 0
M  V30 21 C -5.1961 -0.75 0.0 0
M  V30 22 C -6.4951 0.0 0.0 0
M  V30 23 C -5.1961 -2.25 0.0 0
M  V30 24 C -7.7942 -0.75 0.0 0
M  V30 25 C -6.4951 -3.0 0.0 0
M  V30 26 C -7.7942 -2.25 0.0 0
M  V30 27 C -9.0932 0.0 0.0 0
M  V30 28 O -9.0932 -3.0 0.0 0
M  V30 29 C -9.0932 -4.5 0.0 0
M  V30 30 C -10.3923 -5.25 0.0 0
M  V30 31 C -8.3433 -5.799 0.0 0
M  V30 32 C -7.5933 -4.4999 0.0 0
M  V30 33 O -11.6913 -4.5 0.0 0
M  V30 34 O -10.3923 -6.75 0.0 0
M  V30 END ATOM
M  V30 BEGIN BOND
M  V30 1 2 1 2
M  V30 2 1 2 3
M  V30 3 1 2 4
M  V30 4 1 3 5
M  V30 5 2 4 6
M  V30 6 1 4 7
M  V30 7 1 5 8
M  V30 8 1 6 9
M  V30 9 1 6 10
M  V30 10 2 7 11
M  V30 11 2 8 12
M  V30 12 1 8 13
M  V30 13 2 9 14
M  V30 14 1 12 15
M  V30 15 2 13 16
M  V30 16 1 14 17
M  V30 17 1 15 18
M  V30 18 2 15 19
M  V30 19 1 17 20
M  V30 20 1 18 21
M  V30 21 2 21 22
M  V30 22 1 21 23
M  V30 23 1 22 24
M  V30 24 2 23 25
M  V30 25 2 24 26
M  V30 26 1 24 27
M  V30 27 1 26 28
M  V30 28 1 28 29
M  V30 29 1 29 30
M  V30 30 1 29 31
M  V30 31 1 29 32
M  V30 32 2 30 33
M  V30 33 1 30 34
M  V30 34 1 11 14
M  V30 35 1 16 19
M  V30 36 1 25 26
M  V30 END BOND
M  V30 END CTAB
M  END
>  <Molecule ChEMBL ID>
CHEMBL237306

>  <Smiles>
COc1ccc(C(=O)NCc2cccc(Oc3ccc(OC(C)(C)C(=O)O)c(C)c3)c2)c(C)c1

>  <IC50_nM>
8

>  <Assay Description>
Displacement of [3H]2-methyl-2-(4-{3-{propyl-(5-pyridin-2-yl-thiophene-2-sulfonyl)-amino}-propyl}-phenoxy)-propionic acid from human PPARgamma

$$$$
CHEMBL237520
Actelion Java MolfileCreator 2.0

  0  0  0  0  0  0              0 V3000
M  V30 BEGIN CTAB
M  V30 COUNTS 37 39 0 0 0
M  V30 BEGIN ATOM
M  V30 1 F 6.4951 1.5 0.0 0
M  V30 2 C 6.4951 0.0 0.0 0
M  V30 3 C 5.1961 -0.75 0.0 0
M  V30 4 C 7.7942 -0.75 0.0 0
M  V30 5 C 3.8971 0.0 0.0 0
M  V30 6 C 5.1961 -2.25 0.0 0
M  V30 7 C 7.7942 -2.25 0.0 0
M  V30 8 O 3.8971 1.5 0.0 0
M  V30 9 N 2.598 -0.75 0.0 0
M  V30 10 C 6.4951 -3.0 0.0 0
M  V30 11 C 9.0932 -3.0 0.0 0
M  V30 12 C 1.299 0.0 0.0 0
M  V30 13 F 9.8432 -1.7009 0.0 0
M  V30 14 F 10.3923 -3.75 0.0 0
M  V30 15 F 8.3432 -4.299 0.0 0
M  V30 16 C 0.0 -0.75 0.0 0
M  V30 17 C -1.299 0.0 0.0 0
M  V30 18 C 0.0 -2.25 0.0 0
M  V30 19 F -1.299 1.5 0.0 0
M  V30 20 C -2.598 -0.75 0.0 0
M  V30 21 C -1.299 -3.0 0.0 0
M  V30 22 C -2.598 -2.25 0.0 0
M  V30 23 O -1.299 -4.5 0.0 0
M  V30 24 C 0.0 -5.25 0.0 0
M  V30 25 C 0.0 -6.75 0.0 0
M  V30 26 C 1.299 -4.5 0.0 0
M  V30 27 C 1.299 -7.5 0.0 0
M  V30 28 C 2.598 -5.25 0.0 0
M  V30 29 C 2.598 -6.75 0.0 0
M  V30 30 C 1.299 -9.0 0.0 0
M  V30 31 O 3.8971 -7.5 0.0 0
M  V30 32 C 5.1961 -6.75 0.0 0
M  V30 33 C 6.4951 -7.5 0.0 0
M  V30 34 C 5.9461 -5.451 0.0 0
M  V30 35 C 4.4461 -5.451 0.0 0
M  V30 36 O 6.4951 -9.0 0.0 0
M  V30 37 O 7.7942 -6.75 0.0 0
M  V30 END ATOM
M  V30 BEGIN BOND
M  V30 1 1 1 2
M  V30 2 2 2 3
M  V30 3 1 2 4
M  V30 4 1 3 5
M  V30 5 1 3 6
M  V30 6 2 4 7
M  V30 7 2 5 8
M  V30 8 1 5 9
M  V30 9 2 6 10
M  V30 10 1 7 11
M  V30 11 1 9 12
M  V30 12 1 11 13
M  V30 13 1 11 14
M  V30 14 1 11 15
M  V30 15 1 12 16
M  V30 16 2 16 17
M  V30 17 1 16 18
M  V30 18 1 17 19
M  V30 19 1 17 20
M  V30 20 2 18 21
M  V30 21 2 20 22
M  V30 22 1 21 23
M  V30 23 1 23 24
M  V30 24 2 24 25
M  V30 25 1 24 26
M  V30 26 1 25 27
M  V30 27 2 26 28
M  V30 28 2 27 29
M  V30 29 1 27 30
M  V30 30 1 29 31
M  V30 31 1 31 32
M  V30 32 1 32 33
M  V30 33 1 32 34
M  V30 34 1 32 35
M  V30 35 2 33 36
M  V30 36 1 33 37
M  V30 37 1 7 10
M  V30 38 1 21 22
M  V30 39 1 28 29
M  V30 END BOND
M  V30 END CTAB
M  END
>  <Molecule ChEMBL ID>
CHEMBL237520

>  <Smiles>
Cc1cc(Oc2ccc(F)c(CNC(=O)c3ccc(C(F)(F)F)cc3F)c2)ccc1OC(C)(C)C(=O)O

>  <IC50_nM>
8

>  <Assay Description>
Displacement of [3H]2-methyl-2-(4-{3-{propyl-(5-pyridin-2-yl-thiophene-2-sulfonyl)-amino}-propyl}-phenoxy)-propionic acid from human PPARgamma

$$$$
CHEMBL3699409
Actelion Java MolfileCreator 2.0

  0  0  0  0  0  0              0 V3000
M  V30 BEGIN CTAB
M  V30 COUNTS 41 46 0 0 0
M  V30 BEGIN ATOM
M  V30 1 O 11.8592 -3.5669 0.0 0
M  V30 2 C 10.8811 -3.7748 0.0 0
M  V30 3 O 10.212 -3.0316 0.0 0
M  V30 4 C 10.5721 -4.7258 0.0 0
M  V30 5 C 9.5939 -4.9337 0.0 0
M  V30 6 C 11.2412 -5.469 0.0 0
M  V30 7 C 8.9248 -4.1906 0.0 0
M  V30 8 C 9.2849 -5.8848 0.0 0
M  V30 9 C 10.9322 -6.42 0.0 0
M  V30 10 C 9.2338 -3.2395 0.0 0
M  V30 11 C 7.9466 -4.3985 0.0 0
M  V30 12 C 9.954 -6.6279 0.0 0
M  V30 13 C 8.5647 -2.4964 0.0 0
M  V30 14 C 7.2775 -3.6554 0.0 0
M  V30 15 C 7.5865 -2.7043 0.0 0
M  V30 16 C 6.9174 -1.9612 0.0 0
M  V30 17 N 5.9392 -2.1691 0.0 0
M  V30 18 C 5.1961 -1.4999 0.0 0
M  V30 19 C 5.5325 -3.0826 0.0 0
M  V30 20 C 4.3301 -1.9999 0.0 0
M  V30 21 C 5.1961 -0.4999 0.0 0
M  V30 22 C 4.538 -2.9781 0.0 0
M  V30 23 C 6.0325 -3.9487 0.0 0
M  V30 24 C 3.4641 -1.5 0.0 0
M  V30 25 C 4.3301 0.0 0.0 0
M  V30 26 C 3.8689 -3.7212 0.0 0
M  V30 27 C 3.4641 -0.5 0.0 0
M  V30 28 C 2.598 0.0 0.0 0
M  V30 29 O 2.598 1.0 0.0 0
M  V30 30 N 1.732 -0.5 0.0 0
M  V30 31 C 0.866 0.0 0.0 0 CFG=2
M  V30 32 C 0.866 1.0 0.0 0
M  V30 33 C 0.0 -0.5 0.0 0
M  V30 34 N 1.732 1.4999 0.0 0
M  V30 35 C 0.0 1.4999 0.0 0
M  V30 36 C 1.732 2.5 0.0 0
M  V30 37 C 0.0 2.5 0.0 0
M  V30 38 C 0.866 3.0 0.0 0
M  V30 39 C -0.866 2.9999 0.0 0
M  V30 40 C -1.366 3.866 0.0 0
M  V30 41 C -1.866 2.9999 0.0 0
M  V30 END ATOM
M  V30 BEGIN BOND
M  V30 1 2 1 2
M  V30 2 1 2 3
M  V30 3 1 2 4
M  V30 4 2 4 5
M  V30 5 1 4 6
M  V30 6 1 5 7
M  V30 7 1 5 8
M  V30 8 2 6 9
M  V30 9 2 7 10
M  V30 10 1 7 11
M  V30 11 2 8 12
M  V30 12 1 10 13
M  V30 13 2 11 14
M  V30 14 2 13 15
M  V30 15 1 15 16
M  V30 16 1 16 17
M  V30 17 1 17 18
M  V30 18 1 17 19
M  V30 19 2 18 20
M  V30 20 1 18 21
M  V30 21 2 19 22
M  V30 22 1 19 23
M  V30 23 1 20 24
M  V30 24 2 21 25
M  V30 25 1 22 26
M  V30 26 2 24 27
M  V30 27 1 27 28
M  V30 28 2 28 29
M  V30 29 1 28 30
M  V30 30 1 30 31
M  V30 31 1 31 32
M  V30 32 1 31 33 CFG=1
M  V30 33 2 32 34
M  V30 34 1 32 35
M  V30 35 1 34 36
M  V30 36 2 35 37
M  V30 37 2 36 38
M  V30 38 1 37 39
M  V30 39 1 39 40
M  V30 40 1 39 41
M  V30 41 1 9 12
M  V30 42 1 14 15
M  V30 43 1 20 22
M  V30 44 1 25 27
M  V30 45 1 37 38
M  V30 46 1 40 41
M  V30 END BOND
M  V30 BEGIN COLLECTION
M  V30 MDLV30/STEABS ATOMS=(1 31)
M  V30 END COLLECTION
M  V30 END CTAB
M  END
>  <Molecule ChEMBL ID>
CHEMBL3699409

>  <Smiles>
Cc1c(C)n(Cc2ccc(-c3ccccc3C(=O)O)cc2)c2ccc(C(=O)N[C@@H](C)c3cc(C4CC4)ccn3)cc12

>  <IC50_nM>
8

>  <Assay Description>
Lanthascreen Competitive Binding Assay: The assay was performed according to manufacturer protocol. A mixture of nM GST-PPARG-LBD, 5 nM Tb-GST-antibody, 5 nM Fluormone Pan-PPAR Green, and serial dilutions of the experimental compound, beginning at 10 ׬M downwards, was added to wells of black 384-well low-volume plates (Greiner) to a total volume of 18 ׬L. All dilutions were made in TR-FRET assay buffer C. DMSO at 2% final concentration was used as a no-ligand control. Experiment was performed in triplicate, and incubated for 2 hours in the dark prior to assay read in Perkin Elmer ViewLux ultra HTS microplate reader. FRET signal was measured by excitation at 340 nm and emission at 520 nm for fluorescein and 490 nm for terbium. Fold change over DMSO was calculated using GraphPad Prism Software (La Jolla, Calif.) by calculating 520 nm/490 nm ratio. Graphs were plotted as fold change of FRET signal for compound treatment over DMSO-only control.

$$$$
CHEMBL3699418
Actelion Java MolfileCreator 2.0

  0  0  0  0  0  0              0 V3000
M  V30 BEGIN CTAB
M  V30 COUNTS 39 43 0 0 0
M  V30 BEGIN ATOM
M  V30 1 Br 4.3301 -2.9999 0.0 0
M  V30 2 C 4.3301 -1.9999 0.0 0
M  V30 3 C 5.1961 -1.5 0.0 0
M  V30 4 C 3.4641 -1.5 0.0 0
M  V30 5 N 5.1961 -0.5 0.0 0
M  V30 6 C 3.4641 -0.5 0.0 0
M  V30 7 C 4.3301 0.0 0.0 0
M  V30 8 C 2.598 0.0 0.0 0 CFG=1
M  V30 9 N 1.732 -0.5 0.0 0
M  V30 10 C 2.598 1.0 0.0 0
M  V30 11 C 0.866 0.0 0.0 0
M  V30 12 O 0.866 1.0 0.0 0
M  V30 13 C 0.0 -0.5 0.0 0
M  V30 14 C 0.0 -1.4999 0.0 0
M  V30 15 C -0.866 0.0 0.0 0
M  V30 16 C -0.866 -1.9999 0.0 0
M  V30 17 C -1.732 -0.4999 0.0 0
M  V30 18 C -1.732 -1.4999 0.0 0
M  V30 19 C -1.0739 -2.9781 0.0 0
M  V30 20 N -2.4751 -2.1691 0.0 0
M  V30 21 C -2.0684 -3.0826 0.0 0
M  V30 22 C -0.4048 -3.7212 0.0 0
M  V30 23 C -3.4533 -1.9612 0.0 0
M  V30 24 C -2.5684 -3.9487 0.0 0
M  V30 25 C -4.1224 -2.7043 0.0 0
M  V30 26 C -5.1006 -2.4964 0.0 0
M  V30 27 C -3.8134 -3.6554 0.0 0
M  V30 28 C -5.7697 -3.2395 0.0 0
M  V30 29 C -4.4825 -4.3985 0.0 0
M  V30 30 C -5.4607 -4.1906 0.0 0
M  V30 31 C -6.1298 -4.9337 0.0 0
M  V30 32 C -7.108 -4.7258 0.0 0
M  V30 33 C -5.8208 -5.8848 0.0 0
M  V30 34 C -7.417 -3.7748 0.0 0
M  V30 35 C -7.7771 -5.469 0.0 0
M  V30 36 C -6.4899 -6.6279 0.0 0
M  V30 37 O -6.7478 -3.0316 0.0 0
M  V30 38 O -8.3951 -3.5669 0.0 0
M  V30 39 C -7.4681 -6.42 0.0 0
M  V30 END ATOM
M  V30 BEGIN BOND
M  V30 1 1 1 2
M  V30 2 2 2 3
M  V30 3 1 2 4
M  V30 4 1 3 5
M  V30 5 2 4 6
M  V30 6 2 5 7
M  V30 7 1 6 8
M  V30 8 1 8 9
M  V30 9 1 8 10 CFG=1
M  V30 10 1 9 11
M  V30 11 2 11 12
M  V30 12 1 11 13
M  V30 13 2 13 14
M  V30 14 1 13 15
M  V30 15 1 14 16
M  V30 16 2 15 17
M  V30 17 2 16 18
M  V30 18 1 16 19
M  V30 19 1 18 20
M  V30 20 2 19 21
M  V30 21 1 19 22
M  V30 22 1 20 23
M  V30 23 1 21 24
M  V30 24 1 23 25
M  V30 25 2 25 26
M  V30 26 1 25 27
M  V30 27 1 26 28
M  V30 28 2 27 29
M  V30 29 2 28 30
M  V30 30 1 30 31
M  V30 31 2 31 32
M  V30 32 1 31 33
M  V30 33 1 32 34
M  V30 34 1 32 35
M  V30 35 2 33 36
M  V30 36 2 34 37
M  V30 37 1 34 38
M  V30 38 2 35 39
M  V30 39 1 6 7
M  V30 40 1 17 18
M  V30 41 1 20 21
M  V30 42 1 29 30
M  V30 43 1 36 39
M  V30 END BOND
M  V30 BEGIN COLLECTION
M  V30 MDLV30/STERAC1 ATOMS=(1 8)
M  V30 END COLLECTION
M  V30 END CTAB
M  END
>  <Molecule ChEMBL ID>
CHEMBL3699418

>  <Smiles>
Cc1c(C)n(Cc2ccc(-c3ccccc3C(=O)O)cc2)c2ccc(C(=O)NC(C)c3cncc(Br)c3)cc12

>  <IC50_nM>
8

>  <Assay Description>
Lanthascreen Competitive Binding Assay: The assay was performed according to manufacturer protocol. A mixture of nM GST-PPARG-LBD, 5 nM Tb-GST-antibody, 5 nM Fluormone Pan-PPAR Green, and serial dilutions of the experimental compound, beginning at 10 ׬M downwards, was added to wells of black 384-well low-volume plates (Greiner) to a total volume of 18 ׬L. All dilutions were made in TR-FRET assay buffer C. DMSO at 2% final concentration was used as a no-ligand control. Experiment was performed in triplicate, and incubated for 2 hours in the dark prior to assay read in Perkin Elmer ViewLux ultra HTS microplate reader. FRET signal was measured by excitation at 340 nm and emission at 520 nm for fluorescein and 490 nm for terbium. Fold change over DMSO was calculated using GraphPad Prism Software (La Jolla, Calif.) by calculating 520 nm/490 nm ratio. Graphs were plotted as fold change of FRET signal for compound treatment over DMSO-only control.

$$$$
CHEMBL3695881
Actelion Java MolfileCreator 2.0

  0  0  0  0  0  0              0 V3000
M  V30 BEGIN CTAB
M  V30 COUNTS 36 40 0 0 0
M  V30 BEGIN ATOM
M  V30 1 F 6.0621 0.0 0.0 0
M  V30 2 C 5.1961 -0.5 0.0 0
M  V30 3 C 4.3301 0.0 0.0 0
M  V30 4 C 5.1961 -1.4999 0.0 0
M  V30 5 C 3.4641 -0.5 0.0 0
M  V30 6 C 4.3301 -1.9999 0.0 0
M  V30 7 C 3.4641 -1.4999 0.0 0
M  V30 8 C 2.598 0.0 0.0 0 CFG=1
M  V30 9 N 1.732 -0.5 0.0 0
M  V30 10 C 2.598 1.0 0.0 0
M  V30 11 C 0.866 0.0 0.0 0
M  V30 12 O 0.866 1.0 0.0 0
M  V30 13 C 0.0 -0.5 0.0 0
M  V30 14 C 0.0 -1.4999 0.0 0
M  V30 15 C -0.866 0.0 0.0 0
M  V30 16 C -0.866 -1.9999 0.0 0
M  V30 17 C -1.732 -0.4999 0.0 0
M  V30 18 C -1.732 -1.4999 0.0 0
M  V30 19 C -1.0739 -2.9781 0.0 0
M  V30 20 N -2.4751 -2.1691 0.0 0
M  V30 21 C -2.0684 -3.0826 0.0 0
M  V30 22 C -0.4048 -3.7212 0.0 0
M  V30 23 C -3.4533 -1.9612 0.0 0
M  V30 24 C -2.5684 -3.9487 0.0 0
M  V30 25 C -4.1224 -2.7043 0.0 0
M  V30 26 C -5.1006 -2.4964 0.0 0
M  V30 27 C -3.8134 -3.6554 0.0 0
M  V30 28 C -5.7697 -3.2395 0.0 0
M  V30 29 C -4.4825 -4.3985 0.0 0
M  V30 30 C -5.4607 -4.1906 0.0 0
M  V30 31 C -6.1298 -4.9337 0.0 0
M  V30 32 C -7.108 -4.7258 0.0 0
M  V30 33 C -5.8208 -5.8848 0.0 0
M  V30 34 C -7.7771 -5.469 0.0 0
M  V30 35 C -6.4899 -6.6279 0.0 0
M  V30 36 C -7.4681 -6.42 0.0 0
M  V30 END ATOM
M  V30 BEGIN BOND
M  V30 1 1 1 2
M  V30 2 2 2 3
M  V30 3 1 2 4
M  V30 4 1 3 5
M  V30 5 2 4 6
M  V30 6 2 5 7
M  V30 7 1 5 8
M  V30 8 1 8 9
M  V30 9 1 8 10 CFG=1
M  V30 10 1 9 11
M  V30 11 2 11 12
M  V30 12 1 11 13
M  V30 13 2 13 14
M  V30 14 1 13 15
M  V30 15 1 14 16
M  V30 16 2 15 17
M  V30 17 2 16 18
M  V30 18 1 16 19
M  V30 19 1 18 20
M  V30 20 2 19 21
M  V30 21 1 19 22
M  V30 22 1 20 23
M  V30 23 1 21 24
M  V30 24 1 23 25
M  V30 25 2 25 26
M  V30 26 1 25 27
M  V30 27 1 26 28
M  V30 28 2 27 29
M  V30 29 2 28 30
M  V30 30 1 30 31
M  V30 31 2 31 32
M  V30 32 1 31 33
M  V30 33 1 32 34
M  V30 34 2 33 35
M  V30 35 2 34 36
M  V30 36 1 6 7
M  V30 37 1 17 18
M  V30 38 1 20 21
M  V30 39 1 29 30
M  V30 40 1 35 36
M  V30 END BOND
M  V30 BEGIN COLLECTION
M  V30 MDLV30/STEABS ATOMS=(1 8)
M  V30 END COLLECTION
M  V30 END CTAB
M  END
>  <Molecule ChEMBL ID>
CHEMBL3695881

>  <Smiles>
Cc1c(C)n(Cc2ccc(-c3ccccc3)cc2)c2ccc(C(=O)N[C@@H](C)c3cccc(F)c3)cc12

>  <IC50_nM>
8

>  <Assay Description>
Lanthascreen Competitive Binding Assay: The assay was performed according to manufacturer protocol. A mixture of nM GST-PPARG-LBD, 5 nM Tb-GST-antibody, 5 nM Fluormone Pan-PPAR Green, and serial dilutions of the experimental compound, beginning at 10 ׬M downwards, was added to wells of black 384-well low-volume plates (Greiner) to a total volume of 18 ׬L. All dilutions were made in TR-FRET assay buffer C. DMSO at 2% final concentration was used as a no-ligand control. Experiment was performed in triplicate, and incubated for 2 hours in the dark prior to assay read in Perkin Elmer ViewLux ultra HTS microplate reader. FRET signal was measured by excitation at 340 nm and emission at 520 nm for fluorescein and 490 nm for terbium. Fold change over DMSO was calculated using GraphPad Prism Software (La Jolla, Calif.) by calculating 520 nm/490 nm ratio. Graphs were plotted as fold change of FRET signal for compound treatment over DMSO-only control.

$$$$
CHEMBL5271038
Actelion Java MolfileCreator 2.0

  0  0  0  0  0  0              0 V3000
M  V30 BEGIN CTAB
M  V30 COUNTS 36 39 0 0 0
M  V30 BEGIN ATOM
M  V30 1 Cl 6.0621 -1.9999 0.0 0
M  V30 2 C 5.1961 -1.4999 0.0 0
M  V30 3 C 5.1961 -0.5 0.0 0
M  V30 4 C 4.3301 -1.9999 0.0 0
M  V30 5 C 6.0621 0.0 0.0 0
M  V30 6 C 4.3301 0.0 0.0 0
M  V30 7 C 3.4641 -1.5 0.0 0
M  V30 8 O 6.0621 0.9999 0.0 0
M  V30 9 N 6.9282 -0.5 0.0 0
M  V30 10 C 3.4641 -0.5 0.0 0
M  V30 11 F 2.598 -2.0 0.0 0
M  V30 12 C 7.7942 0.0 0.0 0
M  V30 13 C 2.598 0.0 0.0 0
M  V30 14 N 8.6602 -0.5 0.0 0
M  V30 15 C 7.7942 0.9999 0.0 0
M  V30 16 O 2.598 1.0 0.0 0
M  V30 17 N 1.732 -0.5 0.0 0
M  V30 18 C 9.5262 0.0 0.0 0
M  V30 19 C 8.6602 1.4999 0.0 0
M  V30 20 C 6.9282 1.4999 0.0 0
M  V30 21 C 0.866 0.0 0.0 0
M  V30 22 C 9.5262 0.9999 0.0 0
M  V30 23 C 0.0 -0.5 0.0 0
M  V30 24 N 10.3923 1.4999 0.0 0
M  V30 25 C -0.866 0.0 0.0 0
M  V30 26 C 0.0 -1.4999 0.0 0
M  V30 27 C 11.2583 0.9999 0.0 0
M  V30 28 C 10.3923 2.4999 0.0 0
M  V30 29 C -1.732 -0.4999 0.0 0
M  V30 30 C -0.866 -1.9999 0.0 0
M  V30 31 C 12.1243 1.4999 0.0 0
M  V30 32 C 11.2583 2.9999 0.0 0
M  V30 33 F -2.598 0.0 0.0 0
M  V30 34 C -1.732 -1.4999 0.0 0
M  V30 35 O 12.1243 2.4999 0.0 0
M  V30 36 F -2.598 -1.9999 0.0 0
M  V30 END ATOM
M  V30 BEGIN BOND
M  V30 1 1 1 2
M  V30 2 2 2 3
M  V30 3 1 2 4
M  V30 4 1 3 5
M  V30 5 1 3 6
M  V30 6 2 4 7
M  V30 7 2 5 8
M  V30 8 1 5 9
M  V30 9 2 6 10
M  V30 10 1 7 11
M  V30 11 1 9 12
M  V30 12 1 10 13
M  V30 13 2 12 14
M  V30 14 1 12 15
M  V30 15 2 13 16
M  V30 16 1 13 17
M  V30 17 1 14 18
M  V30 18 2 15 19
M  V30 19 1 15 20
M  V30 20 1 17 21
M  V30 21 2 18 22
M  V30 22 1 21 23
M  V30 23 1 22 24
M  V30 24 2 23 25
M  V30 25 1 23 26
M  V30 26 1 24 27
M  V30 27 1 24 28
M  V30 28 1 25 29
M  V30 29 2 26 30
M  V30 30 1 27 31
M  V30 31 1 28 32
M  V30 32 1 29 33
M  V30 33 2 29 34
M  V30 34 1 31 35
M  V30 35 1 34 36
M  V30 36 1 7 10
M  V30 37 1 19 22
M  V30 38 1 30 34
M  V30 39 1 32 35
M  V30 END BOND
M  V30 END CTAB
M  END
>  <Molecule ChEMBL ID>
CHEMBL5271038

>  <Smiles>
Cc1cc(N2CCOCC2)cnc1NC(=O)c1cc(C(=O)NCc2ccc(F)c(F)c2)c(F)cc1Cl

>  <IC50_nM>
8.3

>  <Assay Description>
Inverse agonist activity at human PPARgamma in human RT112/84 transfected with NLuc-fused FABP4 assessed as reduction in PPARgamma transactivation incubated for 6 to 18 hrs by Nano-Glo luciferase assay

$$$$
CHEMBL5173312
Actelion Java MolfileCreator 2.0

  0  0  0  0  0  0              0 V3000
M  V30 BEGIN CTAB
M  V30 COUNTS 29 32 0 0 0
M  V30 BEGIN ATOM
M  V30 1 Cl 2.598 2.25 0.0 0
M  V30 2 C 3.8971 1.5 0.0 0
M  V30 3 C 3.8971 0.0 0.0 0
M  V30 4 C 5.1961 2.25 0.0 0
M  V30 5 C 2.598 -0.75 0.0 0
M  V30 6 C 5.1961 -0.75 0.0 0
M  V30 7 C 6.4951 1.5 0.0 0
M  V30 8 O 2.598 -2.25 0.0 0
M  V30 9 N 1.299 0.0 0.0 0
M  V30 10 C 6.4951 0.0 0.0 0
M  V30 11 C 0.0 -0.75 0.0 0
M  V30 12 C 7.7942 -0.7499 0.0 0
M  V30 13 C -1.299 0.0 0.0 0
M  V30 14 C 0.0 -2.25 0.0 0
M  V30 15 N 9.0932 -1.4999 0.0 0
M  V30 16 C -2.598 -0.7499 0.0 0
M  V30 17 C -1.299 -2.9999 0.0 0
M  V30 18 N -4.0246 -0.2864 0.0 0
M  V30 19 C -2.598 -2.2499 0.0 0
M  V30 20 C -4.9063 -1.4999 0.0 0
M  V30 21 O -4.0246 -2.7135 0.0 0
M  V30 22 C -6.4063 -1.4999 0.0 0
M  V30 23 C -7.1563 -0.2009 0.0 0
M  V30 24 C -7.1563 -2.799 0.0 0
M  V30 25 C -8.6563 -0.2009 0.0 0
M  V30 26 C -8.6563 -2.799 0.0 0
M  V30 27 C -9.4063 -1.4999 0.0 0
M  V30 28 C -10.9063 -1.4999 0.0 0
M  V30 29 C -11.6563 -2.799 0.0 0
M  V30 END ATOM
M  V30 BEGIN BOND
M  V30 1 1 1 2
M  V30 2 2 2 3
M  V30 3 1 2 4
M  V30 4 1 3 5
M  V30 5 1 3 6
M  V30 6 2 4 7
M  V30 7 2 5 8
M  V30 8 1 5 9
M  V30 9 2 6 10
M  V30 10 1 9 11
M  V30 11 1 10 12
M  V30 12 2 11 13
M  V30 13 1 11 14
M  V30 14 3 12 15
M  V30 15 1 13 16
M  V30 16 2 14 17
M  V30 17 1 16 18
M  V30 18 2 16 19
M  V30 19 2 18 20
M  V30 20 1 19 21
M  V30 21 1 20 22
M  V30 22 2 22 23
M  V30 23 1 22 24
M  V30 24 1 23 25
M  V30 25 2 24 26
M  V30 26 2 25 27
M  V30 27 1 27 28
M  V30 28 1 28 29
M  V30 29 1 7 10
M  V30 30 1 17 19
M  V30 31 1 20 21
M  V30 32 1 26 27
M  V30 END BOND
M  V30 END CTAB
M  END
>  <Molecule ChEMBL ID>
CHEMBL5173312

>  <Smiles>
CCc1ccc(-c2nc3cc(NC(=O)c4cc(C#N)ccc4Cl)ccc3o2)cc1

>  <IC50_nM>
8.6

>  <Assay Description>
Inverse agonist activity at PPARgamma in human RT112/84-FABP4 cells assessed as reduction in PPARgamma transactivation measured by Nanoluciferase reporter gene assay

$$$$
CHEMBL236664
Actelion Java MolfileCreator 2.0

  0  0  0  0  0  0              0 V3000
M  V30 BEGIN CTAB
M  V30 COUNTS 36 38 0 0 0
M  V30 BEGIN ATOM
M  V30 1 F 9.8432 -1.7009 0.0 0
M  V30 2 C 9.0932 -3.0 0.0 0
M  V30 3 F 10.3923 -3.75 0.0 0
M  V30 4 F 8.3432 -4.299 0.0 0
M  V30 5 C 7.7942 -2.25 0.0 0
M  V30 6 C 7.7942 -0.75 0.0 0
M  V30 7 C 6.4951 -3.0 0.0 0
M  V30 8 C 6.4951 0.0 0.0 0
M  V30 9 C 5.1961 -2.25 0.0 0
M  V30 10 C 5.1961 -0.75 0.0 0
M  V30 11 C 6.4951 1.5 0.0 0
M  V30 12 C 3.8971 0.0 0.0 0
M  V30 13 O 3.8971 1.5 0.0 0
M  V30 14 N 2.598 -0.75 0.0 0
M  V30 15 C 1.299 0.0 0.0 0
M  V30 16 C 0.0 -0.75 0.0 0
M  V30 17 C -1.299 0.0 0.0 0
M  V30 18 C 0.0 -2.25 0.0 0
M  V30 19 C -2.598 -0.75 0.0 0
M  V30 20 C -1.299 -3.0 0.0 0
M  V30 21 O -3.8971 0.0 0.0 0
M  V30 22 C -2.598 -2.25 0.0 0
M  V30 23 C -5.1961 -0.75 0.0 0
M  V30 24 C -6.4951 0.0 0.0 0
M  V30 25 C -5.1961 -2.25 0.0 0
M  V30 26 C -7.7942 -0.75 0.0 0
M  V30 27 C -6.4951 -3.0 0.0 0
M  V30 28 C -7.7942 -2.25 0.0 0
M  V30 29 C -9.0932 0.0 0.0 0
M  V30 30 O -9.0932 -3.0 0.0 0
M  V30 31 C -9.0932 -4.5 0.0 0
M  V30 32 C -10.3923 -5.25 0.0 0
M  V30 33 C -8.3433 -5.799 0.0 0
M  V30 34 C -7.5933 -4.4999 0.0 0
M  V30 35 O -11.6913 -4.5 0.0 0
M  V30 36 O -10.3923 -6.75 0.0 0
M  V30 END ATOM
M  V30 BEGIN BOND
M  V30 1 1 1 2
M  V30 2 1 2 3
M  V30 3 1 2 4
M  V30 4 1 2 5
M  V30 5 2 5 6
M  V30 6 1 5 7
M  V30 7 1 6 8
M  V30 8 2 7 9
M  V30 9 2 8 10
M  V30 10 1 8 11
M  V30 11 1 10 12
M  V30 12 2 12 13
M  V30 13 1 12 14
M  V30 14 1 14 15
M  V30 15 1 15 16
M  V30 16 2 16 17
M  V30 17 1 16 18
M  V30 18 1 17 19
M  V30 19 2 18 20
M  V30 20 1 19 21
M  V30 21 2 19 22
M  V30 22 1 21 23
M  V30 23 2 23 24
M  V30 24 1 23 25
M  V30 25 1 24 26
M  V30 26 2 25 27
M  V30 27 2 26 28
M  V30 28 1 26 29
M  V30 29 1 28 30
M  V30 30 1 30 31
M  V30 31 1 31 32
M  V30 32 1 31 33
M  V30 33 1 31 34
M  V30 34 2 32 35
M  V30 35 1 32 36
M  V30 36 1 9 10
M  V30 37 1 20 22
M  V30 38 1 27 28
M  V30 END BOND
M  V30 END CTAB
M  END
>  <Molecule ChEMBL ID>
CHEMBL236664

>  <Smiles>
Cc1cc(Oc2cccc(CNC(=O)c3ccc(C(F)(F)F)cc3C)c2)ccc1OC(C)(C)C(=O)O

>  <IC50_nM>
8.995

>  <Assay Description>
Agonist activity at PPARgamma

$$$$
CHEMBL237086
Actelion Java MolfileCreator 2.0

  0  0  0  0  0  0              0 V3000
M  V30 BEGIN CTAB
M  V30 COUNTS 33 35 0 0 0
M  V30 BEGIN ATOM
M  V30 1 Cl 9.0932 -3.0 0.0 0
M  V30 2 C 7.7942 -2.25 0.0 0
M  V30 3 C 7.7942 -0.75 0.0 0
M  V30 4 C 6.4951 -3.0 0.0 0
M  V30 5 C 6.4951 0.0 0.0 0
M  V30 6 C 5.1961 -2.25 0.0 0
M  V30 7 C 5.1961 -0.75 0.0 0
M  V30 8 C 6.4951 1.5 0.0 0
M  V30 9 C 3.8971 0.0 0.0 0
M  V30 10 O 3.8971 1.5 0.0 0
M  V30 11 N 2.598 -0.75 0.0 0
M  V30 12 C 1.299 0.0 0.0 0
M  V30 13 C 0.0 -0.75 0.0 0
M  V30 14 C -1.299 0.0 0.0 0
M  V30 15 C 0.0 -2.25 0.0 0
M  V30 16 C -2.598 -0.75 0.0 0
M  V30 17 C -1.299 -3.0 0.0 0
M  V30 18 O -3.8971 0.0 0.0 0
M  V30 19 C -2.598 -2.25 0.0 0
M  V30 20 C -5.1961 -0.75 0.0 0
M  V30 21 C -6.4951 0.0 0.0 0
M  V30 22 C -5.1961 -2.25 0.0 0
M  V30 23 C -7.7942 -0.75 0.0 0
M  V30 24 C -6.4951 -3.0 0.0 0
M  V30 25 C -7.7942 -2.25 0.0 0
M  V30 26 C -9.0932 0.0 0.0 0
M  V30 27 O -9.0932 -3.0 0.0 0
M  V30 28 C -9.0932 -4.5 0.0 0
M  V30 29 C -10.3923 -5.25 0.0 0
M  V30 30 C -8.3433 -5.799 0.0 0
M  V30 31 C -7.5933 -4.4999 0.0 0
M  V30 32 O -11.6913 -4.5 0.0 0
M  V30 33 O -10.3923 -6.75 0.0 0
M  V30 END ATOM
M  V30 BEGIN BOND
M  V30 1 1 1 2
M  V30 2 2 2 3
M  V30 3 1 2 4
M  V30 4 1 3 5
M  V30 5 2 4 6
M  V30 6 2 5 7
M  V30 7 1 5 8
M  V30 8 1 7 9
M  V30 9 2 9 10
M  V30 10 1 9 11
M  V30 11 1 11 12
M  V30 12 1 12 13
M  V30 13 2 13 14
M  V30 14 1 13 15
M  V30 15 1 14 16
M  V30 16 2 15 17
M  V30 17 1 16 18
M  V30 18 2 16 19
M  V30 19 1 18 20
M  V30 20 2 20 21
M  V30 21 1 20 22
M  V30 22 1 21 23
M  V30 23 2 22 24
M  V30 24 2 23 25
M  V30 25 1 23 26
M  V30 26 1 25 27
M  V30 27 1 27 28
M  V30 28 1 28 29
M  V30 29 1 28 30
M  V30 30 1 28 31
M  V30 31 2 29 32
M  V30 32 1 29 33
M  V30 33 1 6 7
M  V30 34 1 17 19
M  V30 35 1 24 25
M  V30 END BOND
M  V30 END CTAB
M  END
>  <Molecule ChEMBL ID>
CHEMBL237086

>  <Smiles>
Cc1cc(Oc2cccc(CNC(=O)c3ccc(Cl)cc3C)c2)ccc1OC(C)(C)C(=O)O

>  <IC50_nM>
8.995

>  <Assay Description>
Agonist activity at PPARgamma

$$$$
CHEMBL552240
Actelion Java MolfileCreator 2.0

  0  0  0  0  0  0              0 V3000
M  V30 BEGIN CTAB
M  V30 COUNTS 38 41 0 0 0
M  V30 BEGIN ATOM
M  V30 1 Cl 6.0664 -5.852 0.0 0
M  V30 2 C 6.6542 -5.043 0.0 0
M  V30 3 C 7.6487 -5.1475 0.0 0
M  V30 4 C 6.2475 -4.1294 0.0 0
M  V30 5 C 8.2365 -4.3385 0.0 0
M  V30 6 C 6.8353 -3.3204 0.0 0
M  V30 7 C 7.8298 -3.4249 0.0 0
M  V30 8 C 8.4176 -2.6159 0.0 0
M  V30 9 O 9.4121 -2.7205 0.0 0
M  V30 10 C 8.0108 -1.7024 0.0 0
M  V30 11 C 8.5108 -0.8364 0.0 0
M  V30 12 C 7.0327 -1.4945 0.0 0
M  V30 13 C 7.8417 -0.0932 0.0 0
M  V30 14 C 9.489 -0.6284 0.0 0
M  V30 15 N 6.9282 -0.5 0.0 0
M  V30 16 C 6.2895 -2.1636 0.0 0
M  V30 17 C 8.1507 0.8577 0.0 0
M  V30 18 C 9.798 0.3225 0.0 0
M  V30 19 C 6.0621 0.0 0.0 0
M  V30 20 C 9.1289 1.0657 0.0 0
M  V30 21 C 5.1961 -0.5 0.0 0
M  V30 22 O 9.4379 2.0167 0.0 0
M  V30 23 C 4.3301 0.0 0.0 0
M  V30 24 C 5.1961 -1.4999 0.0 0
M  V30 25 C 8.7687 2.7599 0.0 0
M  V30 26 C 3.4641 -0.5 0.0 0
M  V30 27 C 4.3301 -1.9999 0.0 0
M  V30 28 F 8.0256 2.0907 0.0 0
M  V30 29 F 8.0996 3.503 0.0 0
M  V30 30 F 9.5119 3.429 0.0 0
M  V30 31 O 2.598 0.0 0.0 0
M  V30 32 C 3.4641 -1.4999 0.0 0
M  V30 33 C 1.732 -0.5 0.0 0 CFG=1
M  V30 34 C 1.732 -1.5 0.0 0
M  V30 35 C 0.866 0.0 0.0 0
M  V30 36 O 0.866 -2.0 0.0 0
M  V30 37 O 2.598 -1.9999 0.0 0
M  V30 38 C 0.0 -0.5 0.0 0
M  V30 END ATOM
M  V30 BEGIN BOND
M  V30 1 1 1 2
M  V30 2 2 2 3
M  V30 3 1 2 4
M  V30 4 1 3 5
M  V30 5 2 4 6
M  V30 6 2 5 7
M  V30 7 1 7 8
M  V30 8 2 8 9
M  V30 9 1 8 10
M  V30 10 1 10 11
M  V30 11 2 10 12
M  V30 12 2 11 13
M  V30 13 1 11 14
M  V30 14 1 12 15
M  V30 15 1 12 16
M  V30 16 1 13 17
M  V30 17 2 14 18
M  V30 18 1 15 19
M  V30 19 2 17 20
M  V30 20 1 19 21
M  V30 21 1 20 22
M  V30 22 2 21 23
M  V30 23 1 21 24
M  V30 24 1 22 25
M  V30 25 1 23 26
M  V30 26 2 24 27
M  V30 27 1 25 28
M  V30 28 1 25 29
M  V30 29 1 25 30
M  V30 30 1 26 31
M  V30 31 2 26 32
M  V30 32 1 33 31 CFG=1
M  V30 33 1 33 34
M  V30 34 1 33 35
M  V30 35 2 34 36
M  V30 36 1 34 37
M  V30 37 1 35 38
M  V30 38 1 6 7
M  V30 39 1 13 15
M  V30 40 1 18 20
M  V30 41 1 27 32
M  V30 END BOND
M  V30 BEGIN COLLECTION
M  V30 MDLV30/STEABS ATOMS=(1 33)
M  V30 END COLLECTION
M  V30 END CTAB
M  END
>  <Molecule ChEMBL ID>
CHEMBL552240

>  <Smiles>
CC[C@@H](Oc1cccc(Cn2c(C)c(C(=O)c3ccc(Cl)cc3)c3ccc(OC(F)(F)F)cc32)c1)C(=O)O

>  <IC50_nM>
9

>  <Assay Description>
Inhibition of human PPARgamma receptor by scintillation proximity assay

$$$$
CHEMBL236664
Actelion Java MolfileCreator 2.0

  0  0  0  0  0  0              0 V3000
M  V30 BEGIN CTAB
M  V30 COUNTS 36 38 0 0 0
M  V30 BEGIN ATOM
M  V30 1 F 9.8432 -1.7009 0.0 0
M  V30 2 C 9.0932 -3.0 0.0 0
M  V30 3 F 10.3923 -3.75 0.0 0
M  V30 4 F 8.3432 -4.299 0.0 0
M  V30 5 C 7.7942 -2.25 0.0 0
M  V30 6 C 7.7942 -0.75 0.0 0
M  V30 7 C 6.4951 -3.0 0.0 0
M  V30 8 C 6.4951 0.0 0.0 0
M  V30 9 C 5.1961 -2.25 0.0 0
M  V30 10 C 5.1961 -0.75 0.0 0
M  V30 11 C 6.4951 1.5 0.0 0
M  V30 12 C 3.8971 0.0 0.0 0
M  V30 13 O 3.8971 1.5 0.0 0
M  V30 14 N 2.598 -0.75 0.0 0
M  V30 15 C 1.299 0.0 0.0 0
M  V30 16 C 0.0 -0.75 0.0 0
M  V30 17 C -1.299 0.0 0.0 0
M  V30 18 C 0.0 -2.25 0.0 0
M  V30 19 C -2.598 -0.75 0.0 0
M  V30 20 C -1.299 -3.0 0.0 0
M  V30 21 O -3.8971 0.0 0.0 0
M  V30 22 C -2.598 -2.25 0.0 0
M  V30 23 C -5.1961 -0.75 0.0 0
M  V30 24 C -6.4951 0.0 0.0 0
M  V30 25 C -5.1961 -2.25 0.0 0
M  V30 26 C -7.7942 -0.75 0.0 0
M  V30 27 C -6.4951 -3.0 0.0 0
M  V30 28 C -7.7942 -2.25 0.0 0
M  V30 29 C -9.0932 0.0 0.0 0
M  V30 30 O -9.0932 -3.0 0.0 0
M  V30 31 C -9.0932 -4.5 0.0 0
M  V30 32 C -10.3923 -5.25 0.0 0
M  V30 33 C -8.3433 -5.799 0.0 0
M  V30 34 C -7.5933 -4.4999 0.0 0
M  V30 35 O -11.6913 -4.5 0.0 0
M  V30 36 O -10.3923 -6.75 0.0 0
M  V30 END ATOM
M  V30 BEGIN BOND
M  V30 1 1 1 2
M  V30 2 1 2 3
M  V30 3 1 2 4
M  V30 4 1 2 5
M  V30 5 2 5 6
M  V30 6 1 5 7
M  V30 7 1 6 8
M  V30 8 2 7 9
M  V30 9 2 8 10
M  V30 10 1 8 11
M  V30 11 1 10 12
M  V30 12 2 12 13
M  V30 13 1 12 14
M  V30 14 1 14 15
M  V30 15 1 15 16
M  V30 16 2 16 17
M  V30 17 1 16 18
M  V30 18 1 17 19
M  V30 19 2 18 20
M  V30 20 1 19 21
M  V30 21 2 19 22
M  V30 22 1 21 23
M  V30 23 2 23 24
M  V30 24 1 23 25
M  V30 25 1 24 26
M  V30 26 2 25 27
M  V30 27 2 26 28
M  V30 28 1 26 29
M  V30 29 1 28 30
M  V30 30 1 30 31
M  V30 31 1 31 32
M  V30 32 1 31 33
M  V30 33 1 31 34
M  V30 34 2 32 35
M  V30 35 1 32 36
M  V30 36 1 9 10
M  V30 37 1 20 22
M  V30 38 1 27 28
M  V30 END BOND
M  V30 END CTAB
M  END
>  <Molecule ChEMBL ID>
CHEMBL236664

>  <Smiles>
Cc1cc(Oc2cccc(CNC(=O)c3ccc(C(F)(F)F)cc3C)c2)ccc1OC(C)(C)C(=O)O

>  <IC50_nM>
9

>  <Assay Description>
Displacement of [3H]2-methyl-2-(4-{3-{propyl-(5-pyridin-2-yl-thiophene-2-sulfonyl)-amino}-propyl}-phenoxy)-propionic acid from human PPARgamma

$$$$
CHEMBL237086
Actelion Java MolfileCreator 2.0

  0  0  0  0  0  0              0 V3000
M  V30 BEGIN CTAB
M  V30 COUNTS 33 35 0 0 0
M  V30 BEGIN ATOM
M  V30 1 Cl 9.0932 -3.0 0.0 0
M  V30 2 C 7.7942 -2.25 0.0 0
M  V30 3 C 7.7942 -0.75 0.0 0
M  V30 4 C 6.4951 -3.0 0.0 0
M  V30 5 C 6.4951 0.0 0.0 0
M  V30 6 C 5.1961 -2.25 0.0 0
M  V30 7 C 5.1961 -0.75 0.0 0
M  V30 8 C 6.4951 1.5 0.0 0
M  V30 9 C 3.8971 0.0 0.0 0
M  V30 10 O 3.8971 1.5 0.0 0
M  V30 11 N 2.598 -0.75 0.0 0
M  V30 12 C 1.299 0.0 0.0 0
M  V30 13 C 0.0 -0.75 0.0 0
M  V30 14 C -1.299 0.0 0.0 0
M  V30 15 C 0.0 -2.25 0.0 0
M  V30 16 C -2.598 -0.75 0.0 0
M  V30 17 C -1.299 -3.0 0.0 0
M  V30 18 O -3.8971 0.0 0.0 0
M  V30 19 C -2.598 -2.25 0.0 0
M  V30 20 C -5.1961 -0.75 0.0 0
M  V30 21 C -6.4951 0.0 0.0 0
M  V30 22 C -5.1961 -2.25 0.0 0
M  V30 23 C -7.7942 -0.75 0.0 0
M  V30 24 C -6.4951 -3.0 0.0 0
M  V30 25 C -7.7942 -2.25 0.0 0
M  V30 26 C -9.0932 0.0 0.0 0
M  V30 27 O -9.0932 -3.0 0.0 0
M  V30 28 C -9.0932 -4.5 0.0 0
M  V30 29 C -10.3923 -5.25 0.0 0
M  V30 30 C -8.3433 -5.799 0.0 0
M  V30 31 C -7.5933 -4.4999 0.0 0
M  V30 32 O -11.6913 -4.5 0.0 0
M  V30 33 O -10.3923 -6.75 0.0 0
M  V30 END ATOM
M  V30 BEGIN BOND
M  V30 1 1 1 2
M  V30 2 2 2 3
M  V30 3 1 2 4
M  V30 4 1 3 5
M  V30 5 2 4 6
M  V30 6 2 5 7
M  V30 7 1 5 8
M  V30 8 1 7 9
M  V30 9 2 9 10
M  V30 10 1 9 11
M  V30 11 1 11 12
M  V30 12 1 12 13
M  V30 13 2 13 14
M  V30 14 1 13 15
M  V30 15 1 14 16
M  V30 16 2 15 17
M  V30 17 1 16 18
M  V30 18 2 16 19
M  V30 19 1 18 20
M  V30 20 2 20 21
M  V30 21 1 20 22
M  V30 22 1 21 23
M  V30 23 2 22 24
M  V30 24 2 23 25
M  V30 25 1 23 26
M  V30 26 1 25 27
M  V30 27 1 27 28
M  V30 28 1 28 29
M  V30 29 1 28 30
M  V30 30 1 28 31
M  V30 31 2 29 32
M  V30 32 1 29 33
M  V30 33 1 6 7
M  V30 34 1 17 19
M  V30 35 1 24 25
M  V30 END BOND
M  V30 END CTAB
M  END
>  <Molecule ChEMBL ID>
CHEMBL237086

>  <Smiles>
Cc1cc(Oc2cccc(CNC(=O)c3ccc(Cl)cc3C)c2)ccc1OC(C)(C)C(=O)O

>  <IC50_nM>
9

>  <Assay Description>
Displacement of [3H]2-methyl-2-(4-{3-{propyl-(5-pyridin-2-yl-thiophene-2-sulfonyl)-amino}-propyl}-phenoxy)-propionic acid from human PPARgamma

$$$$
CHEMBL558083
Actelion Java MolfileCreator 2.0

  0  0  0  0  0  0              0 V3000
M  V30 BEGIN CTAB
M  V30 COUNTS 39 42 0 0 0
M  V30 BEGIN ATOM
M  V30 1 Cl 6.0664 -5.852 0.0 0
M  V30 2 C 6.6542 -5.043 0.0 0
M  V30 3 C 7.6487 -5.1475 0.0 0
M  V30 4 C 6.2475 -4.1294 0.0 0
M  V30 5 C 8.2365 -4.3385 0.0 0
M  V30 6 C 6.8353 -3.3204 0.0 0
M  V30 7 C 7.8298 -3.4249 0.0 0
M  V30 8 C 8.4176 -2.6159 0.0 0
M  V30 9 O 9.4121 -2.7205 0.0 0
M  V30 10 C 8.0108 -1.7024 0.0 0
M  V30 11 C 8.5108 -0.8364 0.0 0
M  V30 12 C 7.0327 -1.4945 0.0 0
M  V30 13 C 7.8417 -0.0932 0.0 0
M  V30 14 C 9.489 -0.6284 0.0 0
M  V30 15 N 6.9282 -0.5 0.0 0
M  V30 16 C 6.2895 -2.1636 0.0 0
M  V30 17 C 8.1507 0.8577 0.0 0
M  V30 18 C 9.798 0.3225 0.0 0
M  V30 19 C 6.0621 0.0 0.0 0
M  V30 20 C 9.1289 1.0657 0.0 0
M  V30 21 C 5.1961 -0.5 0.0 0
M  V30 22 O 9.4379 2.0167 0.0 0
M  V30 23 C 4.3301 0.0 0.0 0
M  V30 24 C 5.1961 -1.4999 0.0 0
M  V30 25 C 8.7687 2.7599 0.0 0
M  V30 26 C 3.4641 -0.5 0.0 0
M  V30 27 C 4.3301 -1.9999 0.0 0
M  V30 28 F 8.0256 2.0907 0.0 0
M  V30 29 F 8.0996 3.503 0.0 0
M  V30 30 F 9.5119 3.429 0.0 0
M  V30 31 O 2.598 0.0 0.0 0
M  V30 32 C 3.4641 -1.4999 0.0 0
M  V30 33 C 1.732 -0.5 0.0 0 CFG=1
M  V30 34 C 1.732 -1.5 0.0 0
M  V30 35 C 0.866 0.0 0.0 0
M  V30 36 C 2.598 -0.9999 0.0 0
M  V30 37 O 2.598 -2.0 0.0 0
M  V30 38 O 0.866 -1.9999 0.0 0
M  V30 39 C 0.0 -0.5 0.0 0
M  V30 END ATOM
M  V30 BEGIN BOND
M  V30 1 1 1 2
M  V30 2 2 2 3
M  V30 3 1 2 4
M  V30 4 1 3 5
M  V30 5 2 4 6
M  V30 6 2 5 7
M  V30 7 1 7 8
M  V30 8 2 8 9
M  V30 9 1 8 10
M  V30 10 1 10 11
M  V30 11 2 10 12
M  V30 12 2 11 13
M  V30 13 1 11 14
M  V30 14 1 12 15
M  V30 15 1 12 16
M  V30 16 1 13 17
M  V30 17 2 14 18
M  V30 18 1 15 19
M  V30 19 2 17 20
M  V30 20 1 19 21
M  V30 21 1 20 22
M  V30 22 2 21 23
M  V30 23 1 21 24
M  V30 24 1 22 25
M  V30 25 1 23 26
M  V30 26 2 24 27
M  V30 27 1 25 28
M  V30 28 1 25 29
M  V30 29 1 25 30
M  V30 30 1 26 31
M  V30 31 2 26 32
M  V30 32 1 31 33
M  V30 33 1 33 34
M  V30 34 1 33 35
M  V30 35 1 33 36 CFG=3
M  V30 36 2 34 37
M  V30 37 1 34 38
M  V30 38 1 35 39
M  V30 39 1 6 7
M  V30 40 1 13 15
M  V30 41 1 18 20
M  V30 42 1 27 32
M  V30 END BOND
M  V30 BEGIN COLLECTION
M  V30 MDLV30/STEABS ATOMS=(1 33)
M  V30 END COLLECTION
M  V30 END CTAB
M  END
>  <Molecule ChEMBL ID>
CHEMBL558083

>  <Smiles>
CC[C@@](C)(Oc1cccc(Cn2c(C)c(C(=O)c3ccc(Cl)cc3)c3ccc(OC(F)(F)F)cc32)c1)C(=O)O

>  <IC50_nM>
9

>  <Assay Description>
Inhibition of human PPARgamma receptor by scintillation proximity assay

$$$$
CHEMBL3699379
Actelion Java MolfileCreator 2.0

  0  0  0  0  0  0              0 V3000
M  V30 BEGIN CTAB
M  V30 COUNTS 37 41 0 0 0
M  V30 BEGIN ATOM
M  V30 1 F 4.3301 -2.9999 0.0 0
M  V30 2 C 4.3301 -1.9999 0.0 0
M  V30 3 C 5.1961 -1.5 0.0 0
M  V30 4 C 3.4641 -1.5 0.0 0
M  V30 5 F 6.0621 -2.0 0.0 0
M  V30 6 C 5.1961 -0.5 0.0 0
M  V30 7 C 3.4641 -0.5 0.0 0
M  V30 8 C 4.3301 0.0 0.0 0
M  V30 9 C 2.598 0.0 0.0 0 CFG=1
M  V30 10 N 1.732 -0.5 0.0 0
M  V30 11 C 2.598 1.0 0.0 0
M  V30 12 C 0.866 0.0 0.0 0
M  V30 13 O 0.866 1.0 0.0 0
M  V30 14 C 0.0 -0.5 0.0 0
M  V30 15 C 0.0 -1.4999 0.0 0
M  V30 16 C -0.866 0.0 0.0 0
M  V30 17 C -0.866 -1.9999 0.0 0
M  V30 18 C -1.732 -0.4999 0.0 0
M  V30 19 C -1.732 -1.4999 0.0 0
M  V30 20 C -1.0739 -2.9781 0.0 0
M  V30 21 N -2.4751 -2.1691 0.0 0
M  V30 22 C -2.0684 -3.0826 0.0 0
M  V30 23 C -0.4048 -3.7212 0.0 0
M  V30 24 C -3.4533 -1.9612 0.0 0
M  V30 25 C -2.5684 -3.9487 0.0 0
M  V30 26 C -4.1224 -2.7043 0.0 0
M  V30 27 C -5.1006 -2.4964 0.0 0
M  V30 28 C -3.8134 -3.6554 0.0 0
M  V30 29 C -5.7697 -3.2395 0.0 0
M  V30 30 C -4.4825 -4.3985 0.0 0
M  V30 31 C -5.4607 -4.1906 0.0 0
M  V30 32 C -6.1298 -4.9337 0.0 0
M  V30 33 C -7.108 -4.7258 0.0 0
M  V30 34 C -5.8208 -5.8848 0.0 0
M  V30 35 C -7.7771 -5.469 0.0 0
M  V30 36 C -6.4899 -6.6279 0.0 0
M  V30 37 C -7.4681 -6.42 0.0 0
M  V30 END ATOM
M  V30 BEGIN BOND
M  V30 1 1 1 2
M  V30 2 2 2 3
M  V30 3 1 2 4
M  V30 4 1 3 5
M  V30 5 1 3 6
M  V30 6 2 4 7
M  V30 7 2 6 8
M  V30 8 1 7 9
M  V30 9 1 9 10
M  V30 10 1 9 11 CFG=1
M  V30 11 1 10 12
M  V30 12 2 12 13
M  V30 13 1 12 14
M  V30 14 2 14 15
M  V30 15 1 14 16
M  V30 16 1 15 17
M  V30 17 2 16 18
M  V30 18 2 17 19
M  V30 19 1 17 20
M  V30 20 1 19 21
M  V30 21 2 20 22
M  V30 22 1 20 23
M  V30 23 1 21 24
M  V30 24 1 22 25
M  V30 25 1 24 26
M  V30 26 2 26 27
M  V30 27 1 26 28
M  V30 28 1 27 29
M  V30 29 2 28 30
M  V30 30 2 29 31
M  V30 31 1 31 32
M  V30 32 2 32 33
M  V30 33 1 32 34
M  V30 34 1 33 35
M  V30 35 2 34 36
M  V30 36 2 35 37
M  V30 37 1 7 8
M  V30 38 1 18 19
M  V30 39 1 21 22
M  V30 40 1 30 31
M  V30 41 1 36 37
M  V30 END BOND
M  V30 BEGIN COLLECTION
M  V30 MDLV30/STEABS ATOMS=(1 9)
M  V30 END COLLECTION
M  V30 END CTAB
M  END
>  <Molecule ChEMBL ID>
CHEMBL3699379

>  <Smiles>
Cc1c(C)n(Cc2ccc(-c3ccccc3)cc2)c2ccc(C(=O)N[C@@H](C)c3ccc(F)c(F)c3)cc12

>  <IC50_nM>
9

>  <Assay Description>
Lanthascreen Competitive Binding Assay: The assay was performed according to manufacturer protocol. A mixture of nM GST-PPARG-LBD, 5 nM Tb-GST-antibody, 5 nM Fluormone Pan-PPAR Green, and serial dilutions of the experimental compound, beginning at 10 ׬M downwards, was added to wells of black 384-well low-volume plates (Greiner) to a total volume of 18 ׬L. All dilutions were made in TR-FRET assay buffer C. DMSO at 2% final concentration was used as a no-ligand control. Experiment was performed in triplicate, and incubated for 2 hours in the dark prior to assay read in Perkin Elmer ViewLux ultra HTS microplate reader. FRET signal was measured by excitation at 340 nm and emission at 520 nm for fluorescein and 490 nm for terbium. Fold change over DMSO was calculated using GraphPad Prism Software (La Jolla, Calif.) by calculating 520 nm/490 nm ratio. Graphs were plotted as fold change of FRET signal for compound treatment over DMSO-only control.

$$$$
CHEMBL3678085
Actelion Java MolfileCreator 2.0

  0  0  0  0  0  0              0 V3000
M  V30 BEGIN CTAB
M  V30 COUNTS 30 33 0 0 0
M  V30 BEGIN ATOM
M  V30 1 Br 6.0621 -1.9999 0.0 0
M  V30 2 C 5.1961 -1.4999 0.0 0
M  V30 3 C 5.1961 -0.5 0.0 0
M  V30 4 C 4.3301 -1.9999 0.0 0
M  V30 5 C 4.3301 0.0 0.0 0
M  V30 6 C 3.4641 -1.5 0.0 0
M  V30 7 C 3.4641 -0.5 0.0 0
M  V30 8 C 2.598 0.0 0.0 0 CFG=2
M  V30 9 N 1.732 -0.5 0.0 0
M  V30 10 C 2.598 1.0 0.0 0
M  V30 11 C 0.866 0.0 0.0 0
M  V30 12 O 0.866 1.0 0.0 0
M  V30 13 C 0.0 -0.5 0.0 0
M  V30 14 C 0.0 -1.4999 0.0 0
M  V30 15 C -0.866 0.0 0.0 0
M  V30 16 C -0.866 -1.9999 0.0 0
M  V30 17 C -1.732 -0.4999 0.0 0
M  V30 18 C -1.732 -1.4999 0.0 0
M  V30 19 C -1.0739 -2.9781 0.0 0
M  V30 20 N -2.4751 -2.1691 0.0 0
M  V30 21 C -2.0684 -3.0826 0.0 0
M  V30 22 C -3.4533 -1.9612 0.0 0
M  V30 23 C -4.1224 -2.7043 0.0 0
M  V30 24 C -5.1006 -2.4964 0.0 0
M  V30 25 C -3.8134 -3.6554 0.0 0
M  V30 26 F -5.4096 -1.5453 0.0 0
M  V30 27 C -5.7697 -3.2395 0.0 0
M  V30 28 C -4.4825 -4.3985 0.0 0
M  V30 29 C -5.4607 -4.1906 0.0 0
M  V30 30 F -6.1298 -4.9337 0.0 0
M  V30 END ATOM
M  V30 BEGIN BOND
M  V30 1 1 1 2
M  V30 2 2 2 3
M  V30 3 1 2 4
M  V30 4 1 3 5
M  V30 5 2 4 6
M  V30 6 2 5 7
M  V30 7 1 7 8
M  V30 8 1 8 9
M  V30 9 1 8 10 CFG=3
M  V30 10 1 9 11
M  V30 11 2 11 12
M  V30 12 1 11 13
M  V30 13 2 13 14
M  V30 14 1 13 15
M  V30 15 1 14 16
M  V30 16 2 15 17
M  V30 17 2 16 18
M  V30 18 1 16 19
M  V30 19 1 18 20
M  V30 20 2 19 21
M  V30 21 1 20 22
M  V30 22 1 22 23
M  V30 23 2 23 24
M  V30 24 1 23 25
M  V30 25 1 24 26
M  V30 26 1 24 27
M  V30 27 2 25 28
M  V30 28 2 27 29
M  V30 29 1 29 30
M  V30 30 1 6 7
M  V30 31 1 17 18
M  V30 32 1 20 21
M  V30 33 1 28 29
M  V30 END BOND
M  V30 BEGIN COLLECTION
M  V30 MDLV30/STEABS ATOMS=(1 8)
M  V30 END COLLECTION
M  V30 END CTAB
M  END
>  <Molecule ChEMBL ID>
CHEMBL3678085

>  <Smiles>
C[C@@H](NC(=O)c1ccc2c(ccn2Cc2ccc(F)cc2F)c1)c1ccc(Br)cc1

>  <IC50_nM>
9

>  <Assay Description>
Lanthascreen Competitive Binding Assay: The assay was performed according to manufacturer protocol. A mixture of 5 nM GST-PPARG-LBD, 5 nM Tb-GST-antibody, 5 nM Fluormone Pan- PPAR Green, and serial dilutions of the experimental compound, beginning at 10 ׬� downwards, was added to wells of black 384-well low- volume plates (Greiner) to a total volume of 18 xL. All dilutions were made in TR-FRET assay buffer C. DMSO at 2% final concentration was used as a no-ligand control. Experiment was performed in triplicate, and incubated for 2 hours in the dark prior to assay read in Perkin Elmer ViewLux ultra HTS microplate reader. FRET signal was measured by excitation at 340 nm and emission at 520 nm for fluorescein and 490 nm for terbium.

$$$$
CHEMBL490029
Actelion Java MolfileCreator 2.0

  0  0  0  0  0  0              0 V3000
M  V30 BEGIN CTAB
M  V30 COUNTS 38 41 0 0 0
M  V30 BEGIN ATOM
M  V30 1 F 4.4954 4.6919 0.0 0
M  V30 2 C 5.4464 4.3829 0.0 0
M  V30 3 F 5.7554 5.3339 0.0 0
M  V30 4 F 6.3975 4.0739 0.0 0
M  V30 5 O 5.1374 3.4318 0.0 0
M  V30 6 C 5.8065 2.6887 0.0 0
M  V30 7 C 5.4975 1.7376 0.0 0
M  V30 8 C 6.7847 2.8966 0.0 0
M  V30 9 C 6.1667 0.9945 0.0 0
M  V30 10 C 7.4538 2.1534 0.0 0
M  V30 11 N 6.0621 0.0 0.0 0
M  V30 12 C 7.1448 1.2024 0.0 0
M  V30 13 C 5.1961 -0.5 0.0 0
M  V30 14 C 6.9757 -0.4067 0.0 0
M  V30 15 C 7.6448 0.3364 0.0 0
M  V30 16 C 4.3301 0.0 0.0 0
M  V30 17 C 5.1961 -1.4999 0.0 0
M  V30 18 C 7.1836 -1.3848 0.0 0
M  V30 19 C 8.6393 0.2318 0.0 0
M  V30 20 C 3.4641 -0.5 0.0 0
M  V30 21 C 4.3301 -1.9999 0.0 0
M  V30 22 O 9.0461 -0.6816 0.0 0
M  V30 23 C 9.2271 1.0408 0.0 0
M  V30 24 O 2.598 0.0 0.0 0
M  V30 25 C 3.4641 -1.4999 0.0 0
M  V30 26 C 10.2216 0.9363 0.0 0
M  V30 27 C 8.8204 1.9544 0.0 0
M  V30 28 C 1.732 -0.5 0.0 0 CFG=1
M  V30 29 C 10.8094 1.7453 0.0 0
M  V30 30 C 9.4082 2.7634 0.0 0
M  V30 31 C 1.732 -1.5 0.0 0
M  V30 32 C 0.866 0.0 0.0 0
M  V30 33 C 10.4027 2.6589 0.0 0
M  V30 34 O 0.866 -2.0 0.0 0
M  V30 35 O 2.598 -1.9999 0.0 0
M  V30 36 C 0.0 -0.5 0.0 0
M  V30 37 O 10.9905 3.4679 0.0 0
M  V30 38 C 10.5837 4.3814 0.0 0
M  V30 END ATOM
M  V30 BEGIN BOND
M  V30 1 1 1 2
M  V30 2 1 2 3
M  V30 3 1 2 4
M  V30 4 1 2 5
M  V30 5 1 5 6
M  V30 6 2 6 7
M  V30 7 1 6 8
M  V30 8 1 7 9
M  V30 9 2 8 10
M  V30 10 1 9 11
M  V30 11 2 9 12
M  V30 12 1 11 13
M  V30 13 1 11 14
M  V30 14 1 12 15
M  V30 15 2 13 16
M  V30 16 1 13 17
M  V30 17 1 14 18
M  V30 18 1 15 19
M  V30 19 1 16 20
M  V30 20 2 17 21
M  V30 21 2 19 22
M  V30 22 1 19 23
M  V30 23 1 20 24
M  V30 24 2 20 25
M  V30 25 2 23 26
M  V30 26 1 23 27
M  V30 27 1 28 24 CFG=1
M  V30 28 1 26 29
M  V30 29 2 27 30
M  V30 30 1 28 31
M  V30 31 1 28 32
M  V30 32 2 29 33
M  V30 33 2 31 34
M  V30 34 1 31 35
M  V30 35 1 32 36
M  V30 36 1 33 37
M  V30 37 1 37 38
M  V30 38 1 10 12
M  V30 39 2 14 15
M  V30 40 1 21 25
M  V30 41 1 30 33
M  V30 END BOND
M  V30 BEGIN COLLECTION
M  V30 MDLV30/STEABS ATOMS=(1 28)
M  V30 END COLLECTION
M  V30 END CTAB
M  END
>  <Molecule ChEMBL ID>
CHEMBL490029

>  <Smiles>
CC[C@@H](Oc1cccc(-n2c(C)c(C(=O)c3ccc(OC)cc3)c3ccc(OC(F)(F)F)cc32)c1)C(=O)O

>  <IC50_nM>
9

>  <Assay Description>
Displacement of [3H2]nTZD3 from human recombinant GST-fused PPARgamma expressed in Escherichia coli by scintillation proximity assay

$$$$
CHEMBL3695916
Actelion Java MolfileCreator 2.0

  0  0  0  0  0  0              0 V3000
M  V30 BEGIN CTAB
M  V30 COUNTS 42 46 0 0 0
M  V30 BEGIN ATOM
M  V30 1 O 11.1837 5.7369 0.0 0
M  V30 2 C 10.8747 4.7859 0.0 0
M  V30 3 O 9.8965 4.578 0.0 0
M  V30 4 C 11.5438 4.0427 0.0 0
M  V30 5 C 11.2348 3.0917 0.0 0
M  V30 6 C 12.522 4.2506 0.0 0
M  V30 7 C 10.2566 2.8838 0.0 0
M  V30 8 C 11.9039 2.3485 0.0 0
M  V30 9 C 13.1911 3.5075 0.0 0
M  V30 10 C 9.5875 3.6269 0.0 0
M  V30 11 C 9.9476 1.9327 0.0 0
M  V30 12 C 12.8821 2.5564 0.0 0
M  V30 13 C 8.6094 3.419 0.0 0
M  V30 14 C 8.9695 1.7248 0.0 0
M  V30 15 C 8.3003 2.4679 0.0 0
M  V30 16 C 7.3222 2.26 0.0 0
M  V30 17 N 7.0132 1.309 0.0 0
M  V30 18 C 6.0621 0.9999 0.0 0
M  V30 19 C 7.601 0.5 0.0 0
M  V30 20 C 6.0621 0.0 0.0 0
M  V30 21 C 5.1961 1.4999 0.0 0
M  V30 22 C 7.0132 -0.309 0.0 0
M  V30 23 C 8.601 0.5 0.0 0
M  V30 24 C 5.1961 -0.5 0.0 0
M  V30 25 C 4.3301 0.9999 0.0 0
M  V30 26 C 7.3222 -1.26 0.0 0
M  V30 27 C 4.3301 0.0 0.0 0
M  V30 28 C 3.4641 -0.5 0.0 0
M  V30 29 O 3.4641 -1.5 0.0 0
M  V30 30 N 2.598 0.0 0.0 0
M  V30 31 C 1.732 -0.5 0.0 0 CFG=2
M  V30 32 C 1.732 -1.5 0.0 0
M  V30 33 C 0.866 0.0 0.0 0
M  V30 34 C 0.866 -2.0 0.0 0
M  V30 35 C 2.598 -1.9999 0.0 0
M  V30 36 C 0.0 -0.5 0.0 0
M  V30 37 C 0.866 -3.0 0.0 0
M  V30 38 C 2.598 -3.0 0.0 0
M  V30 39 C 1.732 -3.5 0.0 0
M  V30 40 C 0.0 -3.5 0.0 0
M  V30 41 C -0.866 -3.0 0.0 0
M  V30 42 C 0.0 -4.5 0.0 0
M  V30 END ATOM
M  V30 BEGIN BOND
M  V30 1 2 1 2
M  V30 2 1 2 3
M  V30 3 1 2 4
M  V30 4 2 4 5
M  V30 5 1 4 6
M  V30 6 1 5 7
M  V30 7 1 5 8
M  V30 8 2 6 9
M  V30 9 2 7 10
M  V30 10 1 7 11
M  V30 11 2 8 12
M  V30 12 1 10 13
M  V30 13 2 11 14
M  V30 14 2 13 15
M  V30 15 1 15 16
M  V30 16 1 16 17
M  V30 17 1 17 18
M  V30 18 1 17 19
M  V30 19 2 18 20
M  V30 20 1 18 21
M  V30 21 2 19 22
M  V30 22 1 19 23
M  V30 23 1 20 24
M  V30 24 2 21 25
M  V30 25 1 22 26
M  V30 26 2 24 27
M  V30 27 1 27 28
M  V30 28 2 28 29
M  V30 29 1 28 30
M  V30 30 1 31 30 CFG=3
M  V30 31 1 31 32
M  V30 32 1 31 33
M  V30 33 2 32 34
M  V30 34 1 32 35
M  V30 35 1 33 36
M  V30 36 1 34 37
M  V30 37 2 35 38
M  V30 38 2 37 39
M  V30 39 1 37 40
M  V30 40 1 40 41
M  V30 41 1 40 42
M  V30 42 1 9 12
M  V30 43 1 14 15
M  V30 44 1 20 22
M  V30 45 1 25 27
M  V30 46 1 38 39
M  V30 END BOND
M  V30 BEGIN COLLECTION
M  V30 MDLV30/STEABS ATOMS=(1 31)
M  V30 END COLLECTION
M  V30 END CTAB
M  END
>  <Molecule ChEMBL ID>
CHEMBL3695916

>  <Smiles>
CC[C@H](NC(=O)c1ccc2c(c1)c(C)c(C)n2Cc1ccc(-c2ccccc2C(=O)O)cc1)c1cccc(C(C)C)c1

>  <IC50_nM>
9

>  <Assay Description>
Lanthascreen Competitive Binding Assay: The assay was performed according to manufacturer protocol. A mixture of nM GST-PPARG-LBD, 5 nM Tb-GST-antibody, 5 nM Fluormone Pan-PPAR Green, and serial dilutions of the experimental compound, beginning at 10 ׬M downwards, was added to wells of black 384-well low-volume plates (Greiner) to a total volume of 18 ׬L. All dilutions were made in TR-FRET assay buffer C. DMSO at 2% final concentration was used as a no-ligand control. Experiment was performed in triplicate, and incubated for 2 hours in the dark prior to assay read in Perkin Elmer ViewLux ultra HTS microplate reader. FRET signal was measured by excitation at 340 nm and emission at 520 nm for fluorescein and 490 nm for terbium. Fold change over DMSO was calculated using GraphPad Prism Software (La Jolla, Calif.) by calculating 520 nm/490 nm ratio. Graphs were plotted as fold change of FRET signal for compound treatment over DMSO-only control.

$$$$
CHEMBL3695893
Actelion Java MolfileCreator 2.0

  0  0  0  0  0  0              0 V3000
M  V30 BEGIN CTAB
M  V30 COUNTS 43 47 0 0 0
M  V30 BEGIN ATOM
M  V30 1 F 3.3301 1.0 0.0 0
M  V30 2 C 4.3301 0.9999 0.0 0
M  V30 3 F 4.3301 1.9999 0.0 0
M  V30 4 F 5.3301 0.9999 0.0 0
M  V30 5 C 4.3301 0.0 0.0 0
M  V30 6 C 3.4641 -0.5 0.0 0
M  V30 7 C 5.1961 -0.5 0.0 0
M  V30 8 C 3.4641 -1.5 0.0 0
M  V30 9 C 2.598 0.0 0.0 0 CFG=1
M  V30 10 C 5.1961 -1.5 0.0 0
M  V30 11 C 4.3301 -2.0 0.0 0
M  V30 12 N 1.732 -0.5 0.0 0
M  V30 13 C 2.598 1.0 0.0 0
M  V30 14 C 4.3301 -3.0 0.0 0
M  V30 15 C 0.866 0.0 0.0 0
M  V30 16 F 5.3301 -3.0 0.0 0
M  V30 17 F 4.3301 -4.0 0.0 0
M  V30 18 F 3.3301 -3.0 0.0 0
M  V30 19 O 0.866 1.0 0.0 0
M  V30 20 C 0.0 -0.5 0.0 0
M  V30 21 C 0.0 -1.4999 0.0 0
M  V30 22 C -0.866 0.0 0.0 0
M  V30 23 C -0.866 -1.9999 0.0 0
M  V30 24 C -1.732 -0.4999 0.0 0
M  V30 25 C -1.732 -1.4999 0.0 0
M  V30 26 C -1.0739 -2.9781 0.0 0
M  V30 27 N -2.4751 -2.1691 0.0 0
M  V30 28 C -2.0684 -3.0826 0.0 0
M  V30 29 C -0.4048 -3.7212 0.0 0
M  V30 30 C -3.4533 -1.9612 0.0 0
M  V30 31 C -2.5684 -3.9487 0.0 0
M  V30 32 C -4.1224 -2.7043 0.0 0
M  V30 33 C -5.1006 -2.4964 0.0 0
M  V30 34 C -3.8134 -3.6554 0.0 0
M  V30 35 C -5.7697 -3.2395 0.0 0
M  V30 36 C -4.4825 -4.3985 0.0 0
M  V30 37 C -5.4607 -4.1906 0.0 0
M  V30 38 C -6.1298 -4.9337 0.0 0
M  V30 39 C -7.108 -4.7258 0.0 0
M  V30 40 C -5.8208 -5.8848 0.0 0
M  V30 41 C -7.7771 -5.469 0.0 0
M  V30 42 C -6.4899 -6.6279 0.0 0
M  V30 43 C -7.4681 -6.42 0.0 0
M  V30 END ATOM
M  V30 BEGIN BOND
M  V30 1 1 1 2
M  V30 2 1 2 3
M  V30 3 1 2 4
M  V30 4 1 2 5
M  V30 5 2 5 6
M  V30 6 1 5 7
M  V30 7 1 6 8
M  V30 8 1 6 9
M  V30 9 2 7 10
M  V30 10 2 8 11
M  V30 11 1 9 12
M  V30 12 1 9 13 CFG=1
M  V30 13 1 11 14
M  V30 14 1 12 15
M  V30 15 1 14 16
M  V30 16 1 14 17
M  V30 17 1 14 18
M  V30 18 2 15 19
M  V30 19 1 15 20
M  V30 20 2 20 21
M  V30 21 1 20 22
M  V30 22 1 21 23
M  V30 23 2 22 24
M  V30 24 2 23 25
M  V30 25 1 23 26
M  V30 26 1 25 27
M  V30 27 2 26 28
M  V30 28 1 26 29
M  V30 29 1 27 30
M  V30 30 1 28 31
M  V30 31 1 30 32
M  V30 32 2 32 33
M  V30 33 1 32 34
M  V30 34 1 33 35
M  V30 35 2 34 36
M  V30 36 2 35 37
M  V30 37 1 37 38
M  V30 38 2 38 39
M  V30 39 1 38 40
M  V30 40 1 39 41
M  V30 41 2 40 42
M  V30 42 2 41 43
M  V30 43 1 10 11
M  V30 44 1 24 25
M  V30 45 1 27 28
M  V30 46 1 36 37
M  V30 47 1 42 43
M  V30 END BOND
M  V30 BEGIN COLLECTION
M  V30 MDLV30/STEABS ATOMS=(1 9)
M  V30 END COLLECTION
M  V30 END CTAB
M  END
>  <Molecule ChEMBL ID>
CHEMBL3695893

>  <Smiles>
Cc1c(C)n(Cc2ccc(-c3ccccc3)cc2)c2ccc(C(=O)N[C@@H](C)c3cc(C(F)(F)F)ccc3C(F)(F)F)cc12

>  <IC50_nM>
9

>  <Assay Description>
Lanthascreen Competitive Binding Assay: The assay was performed according to manufacturer protocol. A mixture of nM GST-PPARG-LBD, 5 nM Tb-GST-antibody, 5 nM Fluormone Pan-PPAR Green, and serial dilutions of the experimental compound, beginning at 10 ׬M downwards, was added to wells of black 384-well low-volume plates (Greiner) to a total volume of 18 ׬L. All dilutions were made in TR-FRET assay buffer C. DMSO at 2% final concentration was used as a no-ligand control. Experiment was performed in triplicate, and incubated for 2 hours in the dark prior to assay read in Perkin Elmer ViewLux ultra HTS microplate reader. FRET signal was measured by excitation at 340 nm and emission at 520 nm for fluorescein and 490 nm for terbium. Fold change over DMSO was calculated using GraphPad Prism Software (La Jolla, Calif.) by calculating 520 nm/490 nm ratio. Graphs were plotted as fold change of FRET signal for compound treatment over DMSO-only control.

$$$$
CHEMBL3699427
Actelion Java MolfileCreator 2.0

  0  0  0  0  0  0              0 V3000
M  V30 BEGIN CTAB
M  V30 COUNTS 43 47 0 0 0
M  V30 BEGIN ATOM
M  V30 1 F 2.598 -2.0 0.0 0
M  V30 2 C 3.4641 -1.4999 0.0 0
M  V30 3 C 3.4641 -0.5 0.0 0
M  V30 4 C 4.3301 -1.9999 0.0 0
M  V30 5 C 4.3301 0.0 0.0 0
M  V30 6 C 2.598 0.0 0.0 0 CFG=1
M  V30 7 C 5.1961 -1.4999 0.0 0
M  V30 8 C 5.1961 -0.4999 0.0 0
M  V30 9 C 4.3301 1.0 0.0 0
M  V30 10 N 1.732 -0.5 0.0 0
M  V30 11 C 2.598 1.0 0.0 0
M  V30 12 F 5.3301 1.0 0.0 0
M  V30 13 F 4.3301 2.0 0.0 0
M  V30 14 F 3.3301 1.0 0.0 0
M  V30 15 C 0.866 0.0 0.0 0
M  V30 16 O 0.866 1.0 0.0 0
M  V30 17 C 0.0 -0.5 0.0 0
M  V30 18 C 0.0 -1.4999 0.0 0
M  V30 19 C -0.866 0.0 0.0 0
M  V30 20 C -0.866 -1.9999 0.0 0
M  V30 21 C -1.732 -0.4999 0.0 0
M  V30 22 C -1.732 -1.4999 0.0 0
M  V30 23 C -1.0739 -2.9781 0.0 0
M  V30 24 N -2.4751 -2.1691 0.0 0
M  V30 25 C -2.0684 -3.0826 0.0 0
M  V30 26 C -0.4048 -3.7212 0.0 0
M  V30 27 C -3.4533 -1.9612 0.0 0
M  V30 28 C -2.5684 -3.9487 0.0 0
M  V30 29 C -4.1224 -2.7043 0.0 0
M  V30 30 C -5.1006 -2.4964 0.0 0
M  V30 31 C -3.8134 -3.6554 0.0 0
M  V30 32 C -5.7697 -3.2395 0.0 0
M  V30 33 C -4.4825 -4.3985 0.0 0
M  V30 34 C -5.4607 -4.1906 0.0 0
M  V30 35 C -6.1298 -4.9337 0.0 0
M  V30 36 C -7.108 -4.7258 0.0 0
M  V30 37 C -5.8208 -5.8848 0.0 0
M  V30 38 C -7.417 -3.7748 0.0 0
M  V30 39 C -7.7771 -5.469 0.0 0
M  V30 40 C -6.4899 -6.6279 0.0 0
M  V30 41 O -6.7478 -3.0316 0.0 0
M  V30 42 O -8.3951 -3.5669 0.0 0
M  V30 43 C -7.4681 -6.42 0.0 0
M  V30 END ATOM
M  V30 BEGIN BOND
M  V30 1 1 1 2
M  V30 2 2 2 3
M  V30 3 1 2 4
M  V30 4 1 3 5
M  V30 5 1 3 6
M  V30 6 2 4 7
M  V30 7 2 5 8
M  V30 8 1 5 9
M  V30 9 1 6 10
M  V30 10 1 6 11 CFG=1
M  V30 11 1 9 12
M  V30 12 1 9 13
M  V30 13 1 9 14
M  V30 14 1 10 15
M  V30 15 2 15 16
M  V30 16 1 15 17
M  V30 17 2 17 18
M  V30 18 1 17 19
M  V30 19 1 18 20
M  V30 20 2 19 21
M  V30 21 2 20 22
M  V30 22 1 20 23
M  V30 23 1 22 24
M  V30 24 2 23 25
M  V30 25 1 23 26
M  V30 26 1 24 27
M  V30 27 1 25 28
M  V30 28 1 27 29
M  V30 29 2 29 30
M  V30 30 1 29 31
M  V30 31 1 30 32
M  V30 32 2 31 33
M  V30 33 2 32 34
M  V30 34 1 34 35
M  V30 35 2 35 36
M  V30 36 1 35 37
M  V30 37 1 36 38
M  V30 38 1 36 39
M  V30 39 2 37 40
M  V30 40 2 38 41
M  V30 41 1 38 42
M  V30 42 2 39 43
M  V30 43 1 7 8
M  V30 44 1 21 22
M  V30 45 1 24 25
M  V30 46 1 33 34
M  V30 47 1 40 43
M  V30 END BOND
M  V30 BEGIN COLLECTION
M  V30 MDLV30/STEABS ATOMS=(1 6)
M  V30 END COLLECTION
M  V30 END CTAB
M  END
>  <Molecule ChEMBL ID>
CHEMBL3699427

>  <Smiles>
Cc1c(C)n(Cc2ccc(-c3ccccc3C(=O)O)cc2)c2ccc(C(=O)N[C@@H](C)c3c(F)cccc3C(F)(F)F)cc12

>  <IC50_nM>
9

>  <Assay Description>
Lanthascreen Competitive Binding Assay: The assay was performed according to manufacturer protocol. A mixture of nM GST-PPARG-LBD, 5 nM Tb-GST-antibody, 5 nM Fluormone Pan-PPAR Green, and serial dilutions of the experimental compound, beginning at 10 ׬M downwards, was added to wells of black 384-well low-volume plates (Greiner) to a total volume of 18 ׬L. All dilutions were made in TR-FRET assay buffer C. DMSO at 2% final concentration was used as a no-ligand control. Experiment was performed in triplicate, and incubated for 2 hours in the dark prior to assay read in Perkin Elmer ViewLux ultra HTS microplate reader. FRET signal was measured by excitation at 340 nm and emission at 520 nm for fluorescein and 490 nm for terbium. Fold change over DMSO was calculated using GraphPad Prism Software (La Jolla, Calif.) by calculating 520 nm/490 nm ratio. Graphs were plotted as fold change of FRET signal for compound treatment over DMSO-only control.

$$$$
CHEMBL3699375
Actelion Java MolfileCreator 2.0

  0  0  0  0  0  0              0 V3000
M  V30 BEGIN CTAB
M  V30 COUNTS 37 41 0 0 0
M  V30 BEGIN ATOM
M  V30 1 F 2.598 -1.9999 0.0 0
M  V30 2 C 3.4641 -1.4999 0.0 0
M  V30 3 C 4.3301 -1.9999 0.0 0
M  V30 4 C 3.4641 -0.5 0.0 0
M  V30 5 F 4.3301 -2.9999 0.0 0
M  V30 6 C 5.1961 -1.4999 0.0 0
M  V30 7 C 4.3301 0.0 0.0 0
M  V30 8 C 2.598 0.0 0.0 0 CFG=1
M  V30 9 C 5.1961 -0.4999 0.0 0
M  V30 10 N 1.732 -0.5 0.0 0
M  V30 11 C 2.598 1.0 0.0 0
M  V30 12 C 0.866 0.0 0.0 0
M  V30 13 O 0.866 1.0 0.0 0
M  V30 14 C 0.0 -0.5 0.0 0
M  V30 15 C 0.0 -1.4999 0.0 0
M  V30 16 C -0.866 0.0 0.0 0
M  V30 17 C -0.866 -1.9999 0.0 0
M  V30 18 C -1.732 -0.4999 0.0 0
M  V30 19 C -1.732 -1.4999 0.0 0
M  V30 20 C -1.0739 -2.9781 0.0 0
M  V30 21 N -2.4751 -2.1691 0.0 0
M  V30 22 C -2.0684 -3.0826 0.0 0
M  V30 23 C -0.4048 -3.7212 0.0 0
M  V30 24 C -3.4533 -1.9612 0.0 0
M  V30 25 C -2.5684 -3.9487 0.0 0
M  V30 26 C -4.1224 -2.7043 0.0 0
M  V30 27 C -5.1006 -2.4964 0.0 0
M  V30 28 C -3.8134 -3.6554 0.0 0
M  V30 29 C -5.7697 -3.2395 0.0 0
M  V30 30 C -4.4825 -4.3985 0.0 0
M  V30 31 C -5.4607 -4.1906 0.0 0
M  V30 32 C -6.1298 -4.9337 0.0 0
M  V30 33 C -7.108 -4.7258 0.0 0
M  V30 34 C -5.8208 -5.8848 0.0 0
M  V30 35 C -7.7771 -5.469 0.0 0
M  V30 36 C -6.4899 -6.6279 0.0 0
M  V30 37 C -7.4681 -6.42 0.0 0
M  V30 END ATOM
M  V30 BEGIN BOND
M  V30 1 1 1 2
M  V30 2 2 2 3
M  V30 3 1 2 4
M  V30 4 1 3 5
M  V30 5 1 3 6
M  V30 6 2 4 7
M  V30 7 1 4 8
M  V30 8 2 6 9
M  V30 9 1 8 10
M  V30 10 1 8 11 CFG=1
M  V30 11 1 10 12
M  V30 12 2 12 13
M  V30 13 1 12 14
M  V30 14 2 14 15
M  V30 15 1 14 16
M  V30 16 1 15 17
M  V30 17 2 16 18
M  V30 18 2 17 19
M  V30 19 1 17 20
M  V30 20 1 19 21
M  V30 21 2 20 22
M  V30 22 1 20 23
M  V30 23 1 21 24
M  V30 24 1 22 25
M  V30 25 1 24 26
M  V30 26 2 26 27
M  V30 27 1 26 28
M  V30 28 1 27 29
M  V30 29 2 28 30
M  V30 30 2 29 31
M  V30 31 1 31 32
M  V30 32 2 32 33
M  V30 33 1 32 34
M  V30 34 1 33 35
M  V30 35 2 34 36
M  V30 36 2 35 37
M  V30 37 1 7 9
M  V30 38 1 18 19
M  V30 39 1 21 22
M  V30 40 1 30 31
M  V30 41 1 36 37
M  V30 END BOND
M  V30 BEGIN COLLECTION
M  V30 MDLV30/STEABS ATOMS=(1 8)
M  V30 END COLLECTION
M  V30 END CTAB
M  END
>  <Molecule ChEMBL ID>
CHEMBL3699375

>  <Smiles>
Cc1c(C)n(Cc2ccc(-c3ccccc3)cc2)c2ccc(C(=O)N[C@@H](C)c3cccc(F)c3F)cc12

>  <IC50_nM>
9

>  <Assay Description>
Lanthascreen Competitive Binding Assay: The assay was performed according to manufacturer protocol. A mixture of nM GST-PPARG-LBD, 5 nM Tb-GST-antibody, 5 nM Fluormone Pan-PPAR Green, and serial dilutions of the experimental compound, beginning at 10 ׬M downwards, was added to wells of black 384-well low-volume plates (Greiner) to a total volume of 18 ׬L. All dilutions were made in TR-FRET assay buffer C. DMSO at 2% final concentration was used as a no-ligand control. Experiment was performed in triplicate, and incubated for 2 hours in the dark prior to assay read in Perkin Elmer ViewLux ultra HTS microplate reader. FRET signal was measured by excitation at 340 nm and emission at 520 nm for fluorescein and 490 nm for terbium. Fold change over DMSO was calculated using GraphPad Prism Software (La Jolla, Calif.) by calculating 520 nm/490 nm ratio. Graphs were plotted as fold change of FRET signal for compound treatment over DMSO-only control.

$$$$
CHEMBL3695916
Actelion Java MolfileCreator 2.0

  0  0  0  0  0  0              0 V3000
M  V30 BEGIN CTAB
M  V30 COUNTS 42 46 0 0 0
M  V30 BEGIN ATOM
M  V30 1 O 11.1837 5.7369 0.0 0
M  V30 2 C 10.8747 4.7859 0.0 0
M  V30 3 O 9.8965 4.578 0.0 0
M  V30 4 C 11.5438 4.0427 0.0 0
M  V30 5 C 11.2348 3.0917 0.0 0
M  V30 6 C 12.522 4.2506 0.0 0
M  V30 7 C 10.2566 2.8838 0.0 0
M  V30 8 C 11.9039 2.3485 0.0 0
M  V30 9 C 13.1911 3.5075 0.0 0
M  V30 10 C 9.5875 3.6269 0.0 0
M  V30 11 C 9.9476 1.9327 0.0 0
M  V30 12 C 12.8821 2.5564 0.0 0
M  V30 13 C 8.6094 3.419 0.0 0
M  V30 14 C 8.9695 1.7248 0.0 0
M  V30 15 C 8.3003 2.4679 0.0 0
M  V30 16 C 7.3222 2.26 0.0 0
M  V30 17 N 7.0132 1.309 0.0 0
M  V30 18 C 6.0621 0.9999 0.0 0
M  V30 19 C 7.601 0.5 0.0 0
M  V30 20 C 6.0621 0.0 0.0 0
M  V30 21 C 5.1961 1.4999 0.0 0
M  V30 22 C 7.0132 -0.309 0.0 0
M  V30 23 C 8.601 0.5 0.0 0
M  V30 24 C 5.1961 -0.5 0.0 0
M  V30 25 C 4.3301 0.9999 0.0 0
M  V30 26 C 7.3222 -1.26 0.0 0
M  V30 27 C 4.3301 0.0 0.0 0
M  V30 28 C 3.4641 -0.5 0.0 0
M  V30 29 O 3.4641 -1.5 0.0 0
M  V30 30 N 2.598 0.0 0.0 0
M  V30 31 C 1.732 -0.5 0.0 0 CFG=2
M  V30 32 C 1.732 -1.5 0.0 0
M  V30 33 C 0.866 0.0 0.0 0
M  V30 34 C 0.866 -2.0 0.0 0
M  V30 35 C 2.598 -1.9999 0.0 0
M  V30 36 C 0.0 -0.5 0.0 0
M  V30 37 C 0.866 -3.0 0.0 0
M  V30 38 C 2.598 -3.0 0.0 0
M  V30 39 C 1.732 -3.5 0.0 0
M  V30 40 C 0.0 -3.5 0.0 0
M  V30 41 C -0.866 -3.0 0.0 0
M  V30 42 C 0.0 -4.5 0.0 0
M  V30 END ATOM
M  V30 BEGIN BOND
M  V30 1 2 1 2
M  V30 2 1 2 3
M  V30 3 1 2 4
M  V30 4 2 4 5
M  V30 5 1 4 6
M  V30 6 1 5 7
M  V30 7 1 5 8
M  V30 8 2 6 9
M  V30 9 2 7 10
M  V30 10 1 7 11
M  V30 11 2 8 12
M  V30 12 1 10 13
M  V30 13 2 11 14
M  V30 14 2 13 15
M  V30 15 1 15 16
M  V30 16 1 16 17
M  V30 17 1 17 18
M  V30 18 1 17 19
M  V30 19 2 18 20
M  V30 20 1 18 21
M  V30 21 2 19 22
M  V30 22 1 19 23
M  V30 23 1 20 24
M  V30 24 2 21 25
M  V30 25 1 22 26
M  V30 26 2 24 27
M  V30 27 1 27 28
M  V30 28 2 28 29
M  V30 29 1 28 30
M  V30 30 1 31 30 CFG=3
M  V30 31 1 31 32
M  V30 32 1 31 33
M  V30 33 2 32 34
M  V30 34 1 32 35
M  V30 35 1 33 36
M  V30 36 1 34 37
M  V30 37 2 35 38
M  V30 38 2 37 39
M  V30 39 1 37 40
M  V30 40 1 40 41
M  V30 41 1 40 42
M  V30 42 1 9 12
M  V30 43 1 14 15
M  V30 44 1 20 22
M  V30 45 1 25 27
M  V30 46 1 38 39
M  V30 END BOND
M  V30 BEGIN COLLECTION
M  V30 MDLV30/STEABS ATOMS=(1 31)
M  V30 END COLLECTION
M  V30 END CTAB
M  END
>  <Molecule ChEMBL ID>
CHEMBL3695916

>  <Smiles>
CC[C@H](NC(=O)c1ccc2c(c1)c(C)c(C)n2Cc1ccc(-c2ccccc2C(=O)O)cc1)c1cccc(C(C)C)c1

>  <IC50_nM>
9

>  <Assay Description>
Binding affinity to GST-tagged PPAR-gamma-LBD (unknown origin) after 2 hrs by Lantha screen assay using fluormone Pan-PPAR green probe

$$$$
CHEMBL1946953
Actelion Java MolfileCreator 2.0

  0  0  0  0  0  0              0 V3000
M  V30 BEGIN CTAB
M  V30 COUNTS 39 43 0 0 0
M  V30 BEGIN ATOM
M  V30 1 Cl 9.0932 -3.0 0.0 0
M  V30 2 C 7.7942 -2.2499 0.0 0
M  V30 3 C 7.7942 -0.75 0.0 0
M  V30 4 C 6.4951 -2.9999 0.0 0
M  V30 5 C 6.4951 0.0 0.0 0
M  V30 6 C 9.0932 0.0 0.0 0
M  V30 7 C 5.1961 -2.25 0.0 0
M  V30 8 C 5.1961 -0.75 0.0 0
M  V30 9 N 9.0932 1.5 0.0 0
M  V30 10 O 3.8971 0.0 0.0 0
M  V30 11 C 10.3067 2.3816 0.0 0
M  V30 12 C 7.8797 2.3816 0.0 0
M  V30 13 C 2.598 -0.75 0.0 0 CFG=1
M  V30 14 O 11.7333 1.9181 0.0 0
M  V30 15 N 9.8432 3.8082 0.0 0
M  V30 16 C 8.3432 3.8082 0.0 0
M  V30 17 C 6.4125 2.0698 0.0 0
M  V30 18 C 1.299 0.0 0.0 0
M  V30 19 C 2.598 -2.25 0.0 0
M  V30 20 C 10.7249 5.0217 0.0 0
M  V30 21 C 7.3395 4.9229 0.0 0
M  V30 22 C 5.4088 3.1845 0.0 0
M  V30 23 O 1.299 1.5 0.0 0
M  V30 24 O 0.0 -0.75 0.0 0
M  V30 25 N 12.2249 5.0217 0.0 0
M  V30 26 C 10.2614 6.4483 0.0 0
M  V30 27 C 5.8723 4.6111 0.0 0
M  V30 28 C 3.9416 2.8726 0.0 0
M  V30 29 O 12.6884 6.4483 0.0 0
M  V30 30 C 11.4749 7.33 0.0 0
M  V30 31 C 8.8911 7.0584 0.0 0
M  V30 32 F 4.2534 1.4054 0.0 0
M  V30 33 F 2.4743 2.5607 0.0 0
M  V30 34 F 3.6297 4.3398 0.0 0
M  V30 35 C 11.3181 8.8218 0.0 0
M  V30 36 C 8.7343 8.5502 0.0 0
M  V30 37 C 9.9478 9.4319 0.0 0
M  V30 38 O 9.791 10.9237 0.0 0
M  V30 39 C 8.4207 11.5338 0.0 0
M  V30 END ATOM
M  V30 BEGIN BOND
M  V30 1 1 1 2
M  V30 2 2 2 3
M  V30 3 1 2 4
M  V30 4 1 3 5
M  V30 5 1 3 6
M  V30 6 2 4 7
M  V30 7 2 5 8
M  V30 8 1 6 9
M  V30 9 1 8 10
M  V30 10 1 9 11
M  V30 11 1 9 12
M  V30 12 1 10 13
M  V30 13 2 11 14
M  V30 14 1 11 15
M  V30 15 2 12 16
M  V30 16 1 12 17
M  V30 17 1 13 18
M  V30 18 1 13 19 CFG=3
M  V30 19 1 15 20
M  V30 20 1 16 21
M  V30 21 2 17 22
M  V30 22 2 18 23
M  V30 23 1 18 24
M  V30 24 2 20 25
M  V30 25 1 20 26
M  V30 26 2 21 27
M  V30 27 1 22 28
M  V30 28 1 25 29
M  V30 29 2 26 30
M  V30 30 1 26 31
M  V30 31 1 28 32
M  V30 32 1 28 33
M  V30 33 1 28 34
M  V30 34 1 30 35
M  V30 35 2 31 36
M  V30 36 2 35 37
M  V30 37 1 37 38
M  V30 38 1 38 39
M  V30 39 1 7 8
M  V30 40 1 15 16
M  V30 41 1 22 27
M  V30 42 1 29 30
M  V30 43 1 36 37
M  V30 END BOND
M  V30 BEGIN COLLECTION
M  V30 MDLV30/STEABS ATOMS=(1 13)
M  V30 END COLLECTION
M  V30 END CTAB
M  END
>  <Molecule ChEMBL ID>
CHEMBL1946953

>  <Smiles>
COc1ccc2c(-n3c(=O)n(Cc4cc(O[C@H](C)C(=O)O)ccc4Cl)c4cc(C(F)(F)F)ccc43)noc2c1

>  <IC50_nM>
9.1

>  <Assay Description>
Binding affinity to human PPARgamma by scintillation proximity assay

$$$$
CHEMBL1946571
Actelion Java MolfileCreator 2.0

  0  0  0  0  0  0              0 V3000
M  V30 BEGIN CTAB
M  V30 COUNTS 38 42 0 0 0
M  V30 BEGIN ATOM
M  V30 1 Cl 4.3301 0.9999 0.0 0
M  V30 2 C 4.3301 0.0 0.0 0
M  V30 3 C 3.4641 -0.5 0.0 0
M  V30 4 C 5.1961 -0.5 0.0 0
M  V30 5 O 2.598 0.0 0.0 0
M  V30 6 C 3.4641 -1.5 0.0 0
M  V30 7 C 5.1961 -1.5 0.0 0
M  V30 8 C 1.732 -0.5 0.0 0 CFG=1
M  V30 9 C 4.3301 -2.0 0.0 0
M  V30 10 C 0.866 0.0 0.0 0
M  V30 11 C 1.732 -1.5 0.0 0
M  V30 12 C 4.3301 -3.0 0.0 0
M  V30 13 O 0.866 1.0 0.0 0
M  V30 14 O 0.0 -0.5 0.0 0
M  V30 15 N 5.1961 -3.5 0.0 0
M  V30 16 C 5.3006 -4.4945 0.0 0
M  V30 17 C 6.1096 -3.0932 0.0 0
M  V30 18 O 4.5575 -5.1636 0.0 0
M  V30 19 N 6.2788 -4.7024 0.0 0
M  V30 20 C 6.7788 -3.8364 0.0 0
M  V30 21 C 6.4187 -2.1422 0.0 0
M  V30 22 C 6.6855 -5.6159 0.0 0
M  V30 23 C 7.7569 -3.6284 0.0 0
M  V30 24 C 7.3968 -1.9342 0.0 0
M  V30 25 N 6.1855 -6.482 0.0 0
M  V30 26 C 7.6637 -5.8238 0.0 0
M  V30 27 C 8.0659 -2.6774 0.0 0
M  V30 28 C 7.7058 -0.9832 0.0 0
M  V30 29 O 6.8546 -7.2251 0.0 0
M  V30 30 C 7.7682 -6.8184 0.0 0
M  V30 31 C 8.4727 -5.2361 0.0 0
M  V30 32 F 6.7548 -0.6742 0.0 0
M  V30 33 F 8.0148 -0.0321 0.0 0
M  V30 34 F 8.6569 -1.2922 0.0 0
M  V30 35 C 8.6817 -7.2251 0.0 0
M  V30 36 C 9.3862 -5.6428 0.0 0
M  V30 37 C 9.4908 -6.6373 0.0 0
M  V30 38 C 8.7863 -8.2196 0.0 0
M  V30 END ATOM
M  V30 BEGIN BOND
M  V30 1 1 1 2
M  V30 2 2 2 3
M  V30 3 1 2 4
M  V30 4 1 3 5
M  V30 5 1 3 6
M  V30 6 2 4 7
M  V30 7 1 5 8
M  V30 8 2 6 9
M  V30 9 1 8 10
M  V30 10 1 8 11 CFG=3
M  V30 11 1 9 12
M  V30 12 2 10 13
M  V30 13 1 10 14
M  V30 14 1 12 15
M  V30 15 1 15 16
M  V30 16 1 15 17
M  V30 17 2 16 18
M  V30 18 1 16 19
M  V30 19 2 17 20
M  V30 20 1 17 21
M  V30 21 1 19 22
M  V30 22 1 20 23
M  V30 23 2 21 24
M  V30 24 2 22 25
M  V30 25 1 22 26
M  V30 26 2 23 27
M  V30 27 1 24 28
M  V30 28 1 25 29
M  V30 29 2 26 30
M  V30 30 1 26 31
M  V30 31 1 28 32
M  V30 32 1 28 33
M  V30 33 1 28 34
M  V30 34 1 30 35
M  V30 35 2 31 36
M  V30 36 2 35 37
M  V30 37 1 35 38
M  V30 38 1 7 9
M  V30 39 1 19 20
M  V30 40 1 24 27
M  V30 41 1 29 30
M  V30 42 1 36 37
M  V30 END BOND
M  V30 BEGIN COLLECTION
M  V30 MDLV30/STEABS ATOMS=(1 8)
M  V30 END COLLECTION
M  V30 END CTAB
M  END
>  <Molecule ChEMBL ID>
CHEMBL1946571

>  <Smiles>
Cc1cccc2c(-n3c(=O)n(Cc4ccc(Cl)c(O[C@H](C)C(=O)O)c4)c4cc(C(F)(F)F)ccc43)noc12

>  <IC50_nM>
9.2

>  <Assay Description>
Binding affinity to human PPARgamma by scintillation proximity assay

$$$$
CHEMBL1947147
Actelion Java MolfileCreator 2.0

  0  0  0  0  0  0              0 V3000
M  V30 BEGIN CTAB
M  V30 COUNTS 37 42 0 0 0
M  V30 BEGIN ATOM
M  V30 1 Cl 2.598 1.0 0.0 0
M  V30 2 C 2.598 0.0 0.0 0
M  V30 3 C 1.732 -0.5 0.0 0
M  V30 4 C 3.4641 -0.4999 0.0 0
M  V30 5 C 1.732 -1.5 0.0 0
M  V30 6 C 0.866 0.0 0.0 0
M  V30 7 C 3.4641 -1.4999 0.0 0
M  V30 8 C 2.598 -1.9999 0.0 0
M  V30 9 N 0.0 -0.5 0.0 0
M  V30 10 C 2.598 -2.9999 0.0 0 CFG=1
M  V30 11 C -0.9135 -0.0932 0.0 0
M  V30 12 C -0.1045 -1.4945 0.0 0
M  V30 13 O 1.789 -3.5877 0.0 0
M  V30 14 C 3.407 -3.5877 0.0 0
M  V30 15 C 3.489 -2.546 0.0 0
M  V30 16 O -1.1214 0.8848 0.0 0
M  V30 17 N -1.5826 -0.8364 0.0 0
M  V30 18 C -1.0826 -1.7024 0.0 0
M  V30 19 C 0.5646 -2.2376 0.0 0
M  V30 20 C 2.098 -4.5388 0.0 0
M  V30 21 O 4.3581 -3.2787 0.0 0
M  V30 22 N 3.098 -4.5388 0.0 0
M  V30 23 C -2.5771 -0.7318 0.0 0
M  V30 24 C -1.3916 -2.6534 0.0 0
M  V30 25 C 0.2555 -3.1887 0.0 0
M  V30 26 O 1.5102 -5.3478 0.0 0
M  V30 27 N -3.0771 0.1341 0.0 0
M  V30 28 C -3.2463 -1.475 0.0 0
M  V30 29 C -0.7225 -3.3966 0.0 0
M  V30 30 O -4.0553 -0.0737 0.0 0
M  V30 31 C -4.1598 -1.0682 0.0 0
M  V30 32 C -3.1418 -2.4695 0.0 0
M  V30 33 C -4.9688 -1.656 0.0 0
M  V30 34 C -3.9508 -3.0573 0.0 0
M  V30 35 C -4.8643 -2.6505 0.0 0
M  V30 36 O -5.6733 -3.2383 0.0 0
M  V30 37 C -5.5688 -4.2329 0.0 0
M  V30 END ATOM
M  V30 BEGIN BOND
M  V30 1 1 1 2
M  V30 2 2 2 3
M  V30 3 1 2 4
M  V30 4 1 3 5
M  V30 5 1 3 6
M  V30 6 2 4 7
M  V30 7 2 5 8
M  V30 8 1 6 9
M  V30 9 1 8 10
M  V30 10 1 9 11
M  V30 11 1 9 12
M  V30 12 1 10 13
M  V30 13 1 10 14
M  V30 14 1 10 15 CFG=1
M  V30 15 2 11 16
M  V30 16 1 11 17
M  V30 17 2 12 18
M  V30 18 1 12 19
M  V30 19 1 13 20
M  V30 20 2 14 21
M  V30 21 1 14 22
M  V30 22 1 17 23
M  V30 23 1 18 24
M  V30 24 2 19 25
M  V30 25 2 20 26
M  V30 26 2 23 27
M  V30 27 1 23 28
M  V30 28 2 24 29
M  V30 29 1 27 30
M  V30 30 2 28 31
M  V30 31 1 28 32
M  V30 32 1 31 33
M  V30 33 2 32 34
M  V30 34 2 33 35
M  V30 35 1 35 36
M  V30 36 1 36 37
M  V30 37 1 7 8
M  V30 38 1 17 18
M  V30 39 1 20 22
M  V30 40 1 25 29
M  V30 41 1 30 31
M  V30 42 1 34 35
M  V30 END BOND
M  V30 BEGIN COLLECTION
M  V30 MDLV30/STEABS ATOMS=(1 10)
M  V30 END COLLECTION
M  V30 END CTAB
M  END
>  <Molecule ChEMBL ID>
CHEMBL1947147

>  <Smiles>
COc1ccc2c(-n3c(=O)n(Cc4cc([C@@]5(C)OC(=O)NC5=O)ccc4Cl)c4ccccc43)noc2c1

>  <IC50_nM>
9.9

>  <Assay Description>
Binding affinity to human PPARgamma by scintillation proximity assay

$$$$
CHEMBL236875
Actelion Java MolfileCreator 2.0

  0  0  0  0  0  0              0 V3000
M  V30 BEGIN CTAB
M  V30 COUNTS 37 39 0 0 0
M  V30 BEGIN ATOM
M  V30 1 F 9.8432 -1.7009 0.0 0
M  V30 2 C 9.0932 -3.0 0.0 0
M  V30 3 F 10.3923 -3.75 0.0 0
M  V30 4 F 8.3432 -4.299 0.0 0
M  V30 5 C 7.7942 -2.25 0.0 0
M  V30 6 C 7.7942 -0.75 0.0 0
M  V30 7 C 6.4951 -3.0 0.0 0
M  V30 8 C 6.4951 0.0 0.0 0
M  V30 9 C 5.1961 -2.25 0.0 0
M  V30 10 C 5.1961 -0.75 0.0 0
M  V30 11 C 6.4951 1.5 0.0 0
M  V30 12 C 3.8971 0.0 0.0 0
M  V30 13 C 5.1961 2.25 0.0 0
M  V30 14 O 3.8971 1.5 0.0 0
M  V30 15 N 2.598 -0.75 0.0 0
M  V30 16 C 1.299 0.0 0.0 0
M  V30 17 C 0.0 -0.75 0.0 0
M  V30 18 C -1.299 0.0 0.0 0
M  V30 19 C 0.0 -2.25 0.0 0
M  V30 20 C -2.598 -0.75 0.0 0
M  V30 21 C -1.299 -3.0 0.0 0
M  V30 22 O -3.8971 0.0 0.0 0
M  V30 23 C -2.598 -2.25 0.0 0
M  V30 24 C -5.1961 -0.75 0.0 0
M  V30 25 C -6.4951 0.0 0.0 0
M  V30 26 C -5.1961 -2.25 0.0 0
M  V30 27 C -7.7942 -0.75 0.0 0
M  V30 28 C -6.4951 -3.0 0.0 0
M  V30 29 C -7.7942 -2.25 0.0 0
M  V30 30 C -9.0932 0.0 0.0 0
M  V30 31 O -9.0932 -3.0 0.0 0
M  V30 32 C -9.0932 -4.5 0.0 0
M  V30 33 C -10.3923 -5.25 0.0 0
M  V30 34 C -8.3433 -5.799 0.0 0
M  V30 35 C -7.5933 -4.4999 0.0 0
M  V30 36 O -11.6913 -4.5 0.0 0
M  V30 37 O -10.3923 -6.75 0.0 0
M  V30 END ATOM
M  V30 BEGIN BOND
M  V30 1 1 1 2
M  V30 2 1 2 3
M  V30 3 1 2 4
M  V30 4 1 2 5
M  V30 5 2 5 6
M  V30 6 1 5 7
M  V30 7 1 6 8
M  V30 8 2 7 9
M  V30 9 2 8 10
M  V30 10 1 8 11
M  V30 11 1 10 12
M  V30 12 1 11 13
M  V30 13 2 12 14
M  V30 14 1 12 15
M  V30 15 1 15 16
M  V30 16 1 16 17
M  V30 17 2 17 18
M  V30 18 1 17 19
M  V30 19 1 18 20
M  V30 20 2 19 21
M  V30 21 1 20 22
M  V30 22 2 20 23
M  V30 23 1 22 24
M  V30 24 2 24 25
M  V30 25 1 24 26
M  V30 26 1 25 27
M  V30 27 2 26 28
M  V30 28 2 27 29
M  V30 29 1 27 30
M  V30 30 1 29 31
M  V30 31 1 31 32
M  V30 32 1 32 33
M  V30 33 1 32 34
M  V30 34 1 32 35
M  V30 35 2 33 36
M  V30 36 1 33 37
M  V30 37 1 9 10
M  V30 38 1 21 23
M  V30 39 1 28 29
M  V30 END BOND
M  V30 END CTAB
M  END
>  <Molecule ChEMBL ID>
CHEMBL236875

>  <Smiles>
CCc1cc(C(F)(F)F)ccc1C(=O)NCc1cccc(Oc2ccc(OC(C)(C)C(=O)O)c(C)c2)c1

>  <IC50_nM>
10

>  <Assay Description>
Agonist activity at PPARgamma

$$$$
CHEMBL507477
Actelion Java MolfileCreator 2.0

  0  0  0  0  0  0              0 V3000
M  V30 BEGIN CTAB
M  V30 COUNTS 34 37 0 0 0
M  V30 BEGIN ATOM
M  V30 1 F 4.3301 0.9999 0.0 0
M  V30 2 C 4.3301 0.0 0.0 0
M  V30 3 C 3.4641 -0.5 0.0 0
M  V30 4 C 5.1961 -0.5 0.0 0
M  V30 5 O 2.598 0.0 0.0 0
M  V30 6 C 3.4641 -1.5 0.0 0
M  V30 7 C 5.1961 -1.5 0.0 0
M  V30 8 C 1.732 -0.5 0.0 0 CFG=2
M  V30 9 C 4.3301 -2.0 0.0 0
M  V30 10 C 0.866 0.0 0.0 0
M  V30 11 C 1.732 -1.5 0.0 0
M  V30 12 C 4.3301 -3.0 0.0 0
M  V30 13 O 0.866 1.0 0.0 0
M  V30 14 O 0.0 -0.5 0.0 0
M  V30 15 N 5.1961 -3.5 0.0 0
M  V30 16 C 5.3006 -4.4945 0.0 0
M  V30 17 C 6.1096 -3.0932 0.0 0
M  V30 18 N 4.6315 -5.2376 0.0 0
M  V30 19 C 6.2788 -4.7024 0.0 0
M  V30 20 C 6.7788 -3.8364 0.0 0
M  V30 21 C 6.3176 -2.1151 0.0 0
M  V30 22 C 4.9405 -6.1887 0.0 0
M  V30 23 C 6.5878 -5.6534 0.0 0
M  V30 24 C 7.7733 -3.7318 0.0 0
M  V30 25 C 5.9187 -6.3966 0.0 0
M  V30 26 O 8.3611 -4.5408 0.0 0
M  V30 27 C 8.18 -2.8183 0.0 0
M  V30 28 C 9.1746 -2.7138 0.0 0
M  V30 29 C 7.5923 -2.0093 0.0 0
M  V30 30 C 9.5813 -1.8002 0.0 0
M  V30 31 C 7.999 -1.0957 0.0 0
M  V30 32 C 8.9935 -0.9912 0.0 0
M  V30 33 O 9.4002 -0.0776 0.0 0
M  V30 34 C 8.8125 0.7313 0.0 0
M  V30 END ATOM
M  V30 BEGIN BOND
M  V30 1 1 1 2
M  V30 2 2 2 3
M  V30 3 1 2 4
M  V30 4 1 3 5
M  V30 5 1 3 6
M  V30 6 2 4 7
M  V30 7 1 5 8
M  V30 8 2 6 9
M  V30 9 1 8 10
M  V30 10 1 8 11 CFG=1
M  V30 11 1 9 12
M  V30 12 2 10 13
M  V30 13 1 10 14
M  V30 14 1 12 15
M  V30 15 1 15 16
M  V30 16 1 15 17
M  V30 17 2 16 18
M  V30 18 1 16 19
M  V30 19 2 17 20
M  V30 20 1 17 21
M  V30 21 1 18 22
M  V30 22 2 19 23
M  V30 23 1 20 24
M  V30 24 2 22 25
M  V30 25 2 24 26
M  V30 26 1 24 27
M  V30 27 2 27 28
M  V30 28 1 27 29
M  V30 29 1 28 30
M  V30 30 2 29 31
M  V30 31 2 30 32
M  V30 32 1 32 33
M  V30 33 1 33 34
M  V30 34 1 7 9
M  V30 35 1 19 20
M  V30 36 1 23 25
M  V30 37 1 31 32
M  V30 END BOND
M  V30 BEGIN COLLECTION
M  V30 MDLV30/STEABS ATOMS=(1 8)
M  V30 END COLLECTION
M  V30 END CTAB
M  END
>  <Molecule ChEMBL ID>
CHEMBL507477

>  <Smiles>
COc1ccc(C(=O)c2c(C)n(Cc3ccc(F)c(O[C@@H](C)C(=O)O)c3)c3ncccc23)cc1

>  <IC50_nM>
10

>  <Assay Description>
Displacement of [3H]2AD-5075 from GST-tagged human PPARgamma receptor expressed in Escherichia coli BL21

$$$$
CHEMBL4558373
Actelion Java MolfileCreator 2.0

  0  0  0  0  0  0              0 V3000
M  V30 BEGIN CTAB
M  V30 COUNTS 35 38 0 0 0
M  V30 BEGIN ATOM
M  V30 1 F 10.004 -2.0535 0.0 0
M  V30 2 C 10.212 -3.0316 0.0 0
M  V30 3 F 11.1901 -2.8237 0.0 0
M  V30 4 F 10.4199 -4.0098 0.0 0
M  V30 5 C 9.2338 -3.2395 0.0 0
M  V30 6 C 8.5647 -2.4964 0.0 0
M  V30 7 C 8.9248 -4.1906 0.0 0
M  V30 8 C 7.5865 -2.7043 0.0 0
M  V30 9 C 7.9466 -4.3985 0.0 0
M  V30 10 C 7.2775 -3.6554 0.0 0
M  V30 11 C 6.9174 -1.9612 0.0 0
M  V30 12 N 5.9392 -2.1691 0.0 0
M  V30 13 C 5.1961 -1.4999 0.0 0
M  V30 14 C 5.5325 -3.0826 0.0 0
M  V30 15 C 4.3301 -1.9999 0.0 0
M  V30 16 C 5.1961 -0.4999 0.0 0
M  V30 17 C 4.538 -2.9781 0.0 0
M  V30 18 C 6.0325 -3.9487 0.0 0
M  V30 19 C 3.4641 -1.5 0.0 0
M  V30 20 C 4.3301 0.0 0.0 0
M  V30 21 C 3.8689 -3.7212 0.0 0
M  V30 22 C 3.4641 -0.5 0.0 0
M  V30 23 C 2.598 0.0 0.0 0
M  V30 24 O 2.598 1.0 0.0 0
M  V30 25 N 1.732 -0.5 0.0 0
M  V30 26 C 0.866 0.0 0.0 0
M  V30 27 C 0.0 -0.5 0.0 0
M  V30 28 C -0.866 0.0 0.0 0
M  V30 29 C 0.0 -1.4999 0.0 0
M  V30 30 C -1.732 -0.4999 0.0 0
M  V30 31 C -0.866 -1.9999 0.0 0
M  V30 32 O -2.598 0.0 0.0 0
M  V30 33 C -1.732 -1.4999 0.0 0
M  V30 34 C -3.4641 -0.4999 0.0 0
M  V30 35 O -2.598 -1.9999 0.0 0
M  V30 END ATOM
M  V30 BEGIN BOND
M  V30 1 1 1 2
M  V30 2 1 2 3
M  V30 3 1 2 4
M  V30 4 1 2 5
M  V30 5 2 5 6
M  V30 6 1 5 7
M  V30 7 1 6 8
M  V30 8 2 7 9
M  V30 9 2 8 10
M  V30 10 1 8 11
M  V30 11 1 11 12
M  V30 12 1 12 13
M  V30 13 1 12 14
M  V30 14 2 13 15
M  V30 15 1 13 16
M  V30 16 2 14 17
M  V30 17 1 14 18
M  V30 18 1 15 19
M  V30 19 2 16 20
M  V30 20 1 17 21
M  V30 21 2 19 22
M  V30 22 1 22 23
M  V30 23 2 23 24
M  V30 24 1 23 25
M  V30 25 1 25 26
M  V30 26 1 26 27
M  V30 27 2 27 28
M  V30 28 1 27 29
M  V30 29 1 28 30
M  V30 30 2 29 31
M  V30 31 1 30 32
M  V30 32 2 30 33
M  V30 33 1 32 34
M  V30 34 1 33 35
M  V30 35 1 9 10
M  V30 36 1 15 17
M  V30 37 1 20 22
M  V30 38 1 31 33
M  V30 END BOND
M  V30 END CTAB
M  END
>  <Molecule ChEMBL ID>
CHEMBL4558373

>  <Smiles>
COc1cc(CNC(=O)c2ccc3c(c2)c(C)c(C)n3Cc2cccc(C(F)(F)F)c2)ccc1O

>  <IC50_nM>
10

>  <Assay Description>
Displacement of fluormone PPAR green tracer ligand from recombinant GST-tagged PPARgamma ligand binding domain (unknown origin) incubated for 4 hrs by competitive fluorescence polarization binding assay

$$$$
CHEMBL77502
Actelion Java MolfileCreator 2.0

  0  0  0  0  0  0              0 V3000
M  V30 BEGIN CTAB
M  V30 COUNTS 33 36 0 0 0
M  V30 BEGIN ATOM
M  V30 1 S 5.9316 -2.8238 0.0 0
M  V30 2 C 4.9535 -2.6159 0.0 0
M  V30 3 C 6.0361 -3.8184 0.0 0
M  V30 4 C 4.5467 -1.7024 0.0 0
M  V30 5 C 4.4535 -3.482 0.0 0
M  V30 6 C 5.1226 -4.2251 0.0 0
M  V30 7 O 5.0467 -0.8364 0.0 0
M  V30 8 N 3.5686 -1.4945 0.0 0
M  V30 9 C 4.3776 -0.0932 0.0 0
M  V30 10 C 3.4641 -0.5 0.0 0
M  V30 11 C 4.5855 0.8848 0.0 0
M  V30 12 C 2.598 0.0 0.0 0
M  V30 13 C 1.732 -0.5 0.0 0
M  V30 14 O 0.866 0.0 0.0 0
M  V30 15 C 0.0 -0.5 0.0 0
M  V30 16 C -0.866 0.0 0.0 0
M  V30 17 C 0.0 -1.4999 0.0 0
M  V30 18 C -1.732 -0.4999 0.0 0
M  V30 19 C -0.866 -1.9999 0.0 0
M  V30 20 C -1.732 -1.4999 0.0 0
M  V30 21 C -2.598 -1.9999 0.0 0
M  V30 22 C -2.598 -2.9999 0.0 0 CFG=2
M  V30 23 O -1.732 -3.4999 0.0 0
M  V30 24 C -3.4641 -3.4999 0.0 0
M  V30 25 C -1.732 -2.4999 0.0 0
M  V30 26 C -1.732 -4.4999 0.0 0
M  V30 27 O -4.3301 -2.9999 0.0 0
M  V30 28 O -3.4641 -4.4999 0.0 0
M  V30 29 C -2.598 -4.9999 0.0 0
M  V30 30 C -0.866 -5.0 0.0 0
M  V30 31 C -2.598 -5.9999 0.0 0
M  V30 32 C -0.866 -6.0 0.0 0
M  V30 33 C -1.732 -6.4999 0.0 0
M  V30 END ATOM
M  V30 BEGIN BOND
M  V30 1 1 1 2
M  V30 2 1 1 3
M  V30 3 1 2 4
M  V30 4 2 2 5
M  V30 5 2 3 6
M  V30 6 1 4 7
M  V30 7 2 4 8
M  V30 8 1 7 9
M  V30 9 1 8 10
M  V30 10 1 9 11
M  V30 11 1 10 12
M  V30 12 1 12 13
M  V30 13 1 13 14
M  V30 14 1 14 15
M  V30 15 2 15 16
M  V30 16 1 15 17
M  V30 17 1 16 18
M  V30 18 2 17 19
M  V30 19 2 18 20
M  V30 20 1 20 21
M  V30 21 1 21 22
M  V30 22 1 22 23
M  V30 23 1 22 24
M  V30 24 1 22 25 CFG=1
M  V30 25 1 23 26
M  V30 26 2 24 27
M  V30 27 1 24 28
M  V30 28 2 26 29
M  V30 29 1 26 30
M  V30 30 1 29 31
M  V30 31 2 30 32
M  V30 32 2 31 33
M  V30 33 1 5 6
M  V30 34 2 9 10
M  V30 35 1 19 20
M  V30 36 1 32 33
M  V30 END BOND
M  V30 BEGIN COLLECTION
M  V30 MDLV30/STEABS ATOMS=(1 22)
M  V30 END COLLECTION
M  V30 END CTAB
M  END
>  <Molecule ChEMBL ID>
CHEMBL77502

>  <Smiles>
Cc1oc(-c2cccs2)nc1CCOc1ccc(C[C@](C)(Oc2ccccc2)C(=O)O)cc1

>  <IC50_nM>
10

>  <Assay Description>
Displacement of PPARgamma agonist from human PPAR gamma receptor

$$$$
CHEMBL3695866
Actelion Java MolfileCreator 2.0

  0  0  0  0  0  0              0 V3000
M  V30 BEGIN CTAB
M  V30 COUNTS 38 43 0 0 0
M  V30 BEGIN ATOM
M  V30 1 O 3.4641 -0.4999 0.0 0
M  V30 2 C 2.598 0.0 0.0 0
M  V30 3 N 1.732 -0.4999 0.0 0
M  V30 4 C 2.598 1.0 0.0 0
M  V30 5 C 1.732 -1.4999 0.0 0 CFG=2
M  V30 6 C 1.732 1.4999 0.0 0
M  V30 7 C 3.4641 1.5 0.0 0
M  V30 8 C 2.598 -2.0 0.0 0
M  V30 9 C 0.866 -1.9999 0.0 0
M  V30 10 C 1.732 2.4999 0.0 0
M  V30 11 C 3.4641 2.5 0.0 0
M  V30 12 C 2.598 -2.9999 0.0 0
M  V30 13 C 3.4641 -1.5 0.0 0
M  V30 14 C 2.598 3.0 0.0 0
M  V30 15 C 0.9889 3.1691 0.0 0
M  V30 16 O 1.8549 -3.6691 0.0 0
M  V30 17 C 3.4641 -3.5 0.0 0
M  V30 18 C 4.3301 -2.0 0.0 0
M  V30 19 N 2.3901 3.9781 0.0 0
M  V30 20 C 1.3956 4.0826 0.0 0
M  V30 21 C 0.0107 2.9612 0.0 0
M  V30 22 C 2.2616 -4.5826 0.0 0
M  V30 23 O 3.2561 -4.4781 0.0 0
M  V30 24 C 4.3301 -3.0 0.0 0
M  V30 25 C 3.0592 4.7212 0.0 0
M  V30 26 C 0.8956 4.9487 0.0 0
M  V30 27 C 2.7502 5.6723 0.0 0
M  V30 28 C 3.4194 6.4154 0.0 0
M  V30 29 C 1.7721 5.8802 0.0 0
M  V30 30 C 3.1103 7.3665 0.0 0
M  V30 31 C 1.4631 6.8313 0.0 0
M  V30 32 C 2.1322 7.5744 0.0 0
M  V30 33 C 1.8232 8.5255 0.0 0
M  V30 34 C 2.4923 9.2686 0.0 0
M  V30 35 C 0.845 8.7334 0.0 0
M  V30 36 C 2.1833 10.2197 0.0 0
M  V30 37 C 0.536 9.6844 0.0 0
M  V30 38 C 1.2051 10.4276 0.0 0
M  V30 END ATOM
M  V30 BEGIN BOND
M  V30 1 2 1 2
M  V30 2 1 2 3
M  V30 3 1 2 4
M  V30 4 1 3 5
M  V30 5 2 4 6
M  V30 6 1 4 7
M  V30 7 1 5 8
M  V30 8 1 5 9 CFG=3
M  V30 9 1 6 10
M  V30 10 2 7 11
M  V30 11 2 8 12
M  V30 12 1 8 13
M  V30 13 2 10 14
M  V30 14 1 10 15
M  V30 15 1 12 16
M  V30 16 1 12 17
M  V30 17 2 13 18
M  V30 18 1 14 19
M  V30 19 2 15 20
M  V30 20 1 15 21
M  V30 21 1 16 22
M  V30 22 1 17 23
M  V30 23 2 17 24
M  V30 24 1 19 25
M  V30 25 1 20 26
M  V30 26 1 25 27
M  V30 27 2 27 28
M  V30 28 1 27 29
M  V30 29 1 28 30
M  V30 30 2 29 31
M  V30 31 2 30 32
M  V30 32 1 32 33
M  V30 33 2 33 34
M  V30 34 1 33 35
M  V30 35 1 34 36
M  V30 36 2 35 37
M  V30 37 2 36 38
M  V30 38 1 11 14
M  V30 39 1 18 24
M  V30 40 1 19 20
M  V30 41 1 22 23
M  V30 42 1 31 32
M  V30 43 1 37 38
M  V30 END BOND
M  V30 BEGIN COLLECTION
M  V30 MDLV30/STEABS ATOMS=(1 5)
M  V30 END COLLECTION
M  V30 END CTAB
M  END
>  <Molecule ChEMBL ID>
CHEMBL3695866

>  <Smiles>
Cc1c(C)n(Cc2ccc(-c3ccccc3)cc2)c2ccc(C(=O)N[C@@H](C)c3cccc4c3OCO4)cc12

>  <IC50_nM>
10

>  <Assay Description>
Lanthascreen Competitive Binding Assay: The assay was performed according to manufacturer protocol. A mixture of nM GST-PPARG-LBD, 5 nM Tb-GST-antibody, 5 nM Fluormone Pan-PPAR Green, and serial dilutions of the experimental compound, beginning at 10 ׬M downwards, was added to wells of black 384-well low-volume plates (Greiner) to a total volume of 18 ׬L. All dilutions were made in TR-FRET assay buffer C. DMSO at 2% final concentration was used as a no-ligand control. Experiment was performed in triplicate, and incubated for 2 hours in the dark prior to assay read in Perkin Elmer ViewLux ultra HTS microplate reader. FRET signal was measured by excitation at 340 nm and emission at 520 nm for fluorescein and 490 nm for terbium. Fold change over DMSO was calculated using GraphPad Prism Software (La Jolla, Calif.) by calculating 520 nm/490 nm ratio. Graphs were plotted as fold change of FRET signal for compound treatment over DMSO-only control.

$$$$
CHEMBL236875
Actelion Java MolfileCreator 2.0

  0  0  0  0  0  0              0 V3000
M  V30 BEGIN CTAB
M  V30 COUNTS 37 39 0 0 0
M  V30 BEGIN ATOM
M  V30 1 F 9.8432 -1.7009 0.0 0
M  V30 2 C 9.0932 -3.0 0.0 0
M  V30 3 F 10.3923 -3.75 0.0 0
M  V30 4 F 8.3432 -4.299 0.0 0
M  V30 5 C 7.7942 -2.25 0.0 0
M  V30 6 C 7.7942 -0.75 0.0 0
M  V30 7 C 6.4951 -3.0 0.0 0
M  V30 8 C 6.4951 0.0 0.0 0
M  V30 9 C 5.1961 -2.25 0.0 0
M  V30 10 C 5.1961 -0.75 0.0 0
M  V30 11 C 6.4951 1.5 0.0 0
M  V30 12 C 3.8971 0.0 0.0 0
M  V30 13 C 5.1961 2.25 0.0 0
M  V30 14 O 3.8971 1.5 0.0 0
M  V30 15 N 2.598 -0.75 0.0 0
M  V30 16 C 1.299 0.0 0.0 0
M  V30 17 C 0.0 -0.75 0.0 0
M  V30 18 C -1.299 0.0 0.0 0
M  V30 19 C 0.0 -2.25 0.0 0
M  V30 20 C -2.598 -0.75 0.0 0
M  V30 21 C -1.299 -3.0 0.0 0
M  V30 22 O -3.8971 0.0 0.0 0
M  V30 23 C -2.598 -2.25 0.0 0
M  V30 24 C -5.1961 -0.75 0.0 0
M  V30 25 C -6.4951 0.0 0.0 0
M  V30 26 C -5.1961 -2.25 0.0 0
M  V30 27 C -7.7942 -0.75 0.0 0
M  V30 28 C -6.4951 -3.0 0.0 0
M  V30 29 C -7.7942 -2.25 0.0 0
M  V30 30 C -9.0932 0.0 0.0 0
M  V30 31 O -9.0932 -3.0 0.0 0
M  V30 32 C -9.0932 -4.5 0.0 0
M  V30 33 C -10.3923 -5.25 0.0 0
M  V30 34 C -8.3433 -5.799 0.0 0
M  V30 35 C -7.5933 -4.4999 0.0 0
M  V30 36 O -11.6913 -4.5 0.0 0
M  V30 37 O -10.3923 -6.75 0.0 0
M  V30 END ATOM
M  V30 BEGIN BOND
M  V30 1 1 1 2
M  V30 2 1 2 3
M  V30 3 1 2 4
M  V30 4 1 2 5
M  V30 5 2 5 6
M  V30 6 1 5 7
M  V30 7 1 6 8
M  V30 8 2 7 9
M  V30 9 2 8 10
M  V30 10 1 8 11
M  V30 11 1 10 12
M  V30 12 1 11 13
M  V30 13 2 12 14
M  V30 14 1 12 15
M  V30 15 1 15 16
M  V30 16 1 16 17
M  V30 17 2 17 18
M  V30 18 1 17 19
M  V30 19 1 18 20
M  V30 20 2 19 21
M  V30 21 1 20 22
M  V30 22 2 20 23
M  V30 23 1 22 24
M  V30 24 2 24 25
M  V30 25 1 24 26
M  V30 26 1 25 27
M  V30 27 2 26 28
M  V30 28 2 27 29
M  V30 29 1 27 30
M  V30 30 1 29 31
M  V30 31 1 31 32
M  V30 32 1 32 33
M  V30 33 1 32 34
M  V30 34 1 32 35
M  V30 35 2 33 36
M  V30 36 1 33 37
M  V30 37 1 9 10
M  V30 38 1 21 23
M  V30 39 1 28 29
M  V30 END BOND
M  V30 END CTAB
M  END
>  <Molecule ChEMBL ID>
CHEMBL236875

>  <Smiles>
CCc1cc(C(F)(F)F)ccc1C(=O)NCc1cccc(Oc2ccc(OC(C)(C)C(=O)O)c(C)c2)c1

>  <IC50_nM>
10

>  <Assay Description>
Displacement of [3H]2-methyl-2-(4-{3-{propyl-(5-pyridin-2-yl-thiophene-2-sulfonyl)-amino}-propyl}-phenoxy)-propionic acid from human PPARgamma

$$$$
CHEMBL3699424
Actelion Java MolfileCreator 2.0

  0  0  0  0  0  0              0 V3000
M  V30 BEGIN CTAB
M  V30 COUNTS 41 46 0 0 0
M  V30 BEGIN ATOM
M  V30 1 O 11.8592 -3.5669 0.0 0
M  V30 2 C 10.8811 -3.7748 0.0 0
M  V30 3 O 10.212 -3.0316 0.0 0
M  V30 4 C 10.5721 -4.7258 0.0 0
M  V30 5 C 9.5939 -4.9337 0.0 0
M  V30 6 C 11.2412 -5.469 0.0 0
M  V30 7 C 8.9248 -4.1906 0.0 0
M  V30 8 C 9.2849 -5.8848 0.0 0
M  V30 9 C 10.9322 -6.42 0.0 0
M  V30 10 C 9.2338 -3.2395 0.0 0
M  V30 11 C 7.9466 -4.3985 0.0 0
M  V30 12 C 9.954 -6.6279 0.0 0
M  V30 13 C 8.5647 -2.4964 0.0 0
M  V30 14 C 7.2775 -3.6554 0.0 0
M  V30 15 C 7.5865 -2.7043 0.0 0
M  V30 16 C 6.9174 -1.9612 0.0 0
M  V30 17 N 5.9392 -2.1691 0.0 0
M  V30 18 C 5.1961 -1.4999 0.0 0
M  V30 19 C 5.5325 -3.0826 0.0 0
M  V30 20 C 4.3301 -1.9999 0.0 0
M  V30 21 C 5.1961 -0.4999 0.0 0
M  V30 22 C 4.538 -2.9781 0.0 0
M  V30 23 C 6.0325 -3.9487 0.0 0
M  V30 24 C 3.4641 -1.5 0.0 0
M  V30 25 C 4.3301 0.0 0.0 0
M  V30 26 C 3.8689 -3.7212 0.0 0
M  V30 27 C 3.4641 -0.5 0.0 0
M  V30 28 C 2.598 0.0 0.0 0
M  V30 29 O 2.598 1.0 0.0 0
M  V30 30 N 1.732 -0.5 0.0 0
M  V30 31 C 0.866 0.0 0.0 0 CFG=2
M  V30 32 C 0.866 1.0 0.0 0
M  V30 33 C 0.0 -0.5 0.0 0
M  V30 34 C 1.732 1.4999 0.0 0
M  V30 35 C 0.0 1.4999 0.0 0
M  V30 36 C 1.732 2.5 0.0 0
M  V30 37 C 0.0 2.5 0.0 0
M  V30 38 C 0.866 3.0 0.0 0
M  V30 39 C 2.598 3.0 0.0 0
M  V30 40 C 3.598 3.0 0.0 0
M  V30 41 C 3.098 3.866 0.0 0
M  V30 END ATOM
M  V30 BEGIN BOND
M  V30 1 2 1 2
M  V30 2 1 2 3
M  V30 3 1 2 4
M  V30 4 2 4 5
M  V30 5 1 4 6
M  V30 6 1 5 7
M  V30 7 1 5 8
M  V30 8 2 6 9
M  V30 9 2 7 10
M  V30 10 1 7 11
M  V30 11 2 8 12
M  V30 12 1 10 13
M  V30 13 2 11 14
M  V30 14 2 13 15
M  V30 15 1 15 16
M  V30 16 1 16 17
M  V30 17 1 17 18
M  V30 18 1 17 19
M  V30 19 2 18 20
M  V30 20 1 18 21
M  V30 21 2 19 22
M  V30 22 1 19 23
M  V30 23 1 20 24
M  V30 24 2 21 25
M  V30 25 1 22 26
M  V30 26 2 24 27
M  V30 27 1 27 28
M  V30 28 2 28 29
M  V30 29 1 28 30
M  V30 30 1 30 31
M  V30 31 1 31 32
M  V30 32 1 31 33 CFG=1
M  V30 33 2 32 34
M  V30 34 1 32 35
M  V30 35 1 34 36
M  V30 36 2 35 37
M  V30 37 2 36 38
M  V30 38 1 36 39
M  V30 39 1 39 40
M  V30 40 1 39 41
M  V30 41 1 9 12
M  V30 42 1 14 15
M  V30 43 1 20 22
M  V30 44 1 25 27
M  V30 45 1 37 38
M  V30 46 1 40 41
M  V30 END BOND
M  V30 BEGIN COLLECTION
M  V30 MDLV30/STEABS ATOMS=(1 31)
M  V30 END COLLECTION
M  V30 END CTAB
M  END
>  <Molecule ChEMBL ID>
CHEMBL3699424

>  <Smiles>
Cc1c(C)n(Cc2ccc(-c3ccccc3C(=O)O)cc2)c2ccc(C(=O)N[C@@H](C)c3cccc(C4CC4)c3)cc12

>  <IC50_nM>
10

>  <Assay Description>
Lanthascreen Competitive Binding Assay: The assay was performed according to manufacturer protocol. A mixture of nM GST-PPARG-LBD, 5 nM Tb-GST-antibody, 5 nM Fluormone Pan-PPAR Green, and serial dilutions of the experimental compound, beginning at 10 ׬M downwards, was added to wells of black 384-well low-volume plates (Greiner) to a total volume of 18 ׬L. All dilutions were made in TR-FRET assay buffer C. DMSO at 2% final concentration was used as a no-ligand control. Experiment was performed in triplicate, and incubated for 2 hours in the dark prior to assay read in Perkin Elmer ViewLux ultra HTS microplate reader. FRET signal was measured by excitation at 340 nm and emission at 520 nm for fluorescein and 490 nm for terbium. Fold change over DMSO was calculated using GraphPad Prism Software (La Jolla, Calif.) by calculating 520 nm/490 nm ratio. Graphs were plotted as fold change of FRET signal for compound treatment over DMSO-only control.

$$$$
CHEMBL3695810
Actelion Java MolfileCreator 2.0

  0  0  0  0  0  0              0 V3000
M  V30 BEGIN CTAB
M  V30 COUNTS 37 41 0 0 0
M  V30 BEGIN ATOM
M  V30 1 O 6.2419 7.3426 0.0 0
M  V30 2 C 5.9328 6.3916 0.0 0
M  V30 3 O 4.9547 6.1837 0.0 0
M  V30 4 C 6.602 5.6484 0.0 0
M  V30 5 C 6.293 4.6974 0.0 0
M  V30 6 C 7.5801 5.8563 0.0 0
M  V30 7 C 6.9621 3.9542 0.0 0
M  V30 8 C 8.2493 5.1132 0.0 0
M  V30 9 C 7.9402 4.1621 0.0 0
M  V30 10 C 8.6094 3.419 0.0 0
M  V30 11 C 8.3003 2.4679 0.0 0
M  V30 12 C 9.5875 3.6269 0.0 0
M  V30 13 C 8.9695 1.7248 0.0 0
M  V30 14 C 7.3222 2.26 0.0 0
M  V30 15 C 10.2566 2.8838 0.0 0
M  V30 16 C 9.9476 1.9327 0.0 0
M  V30 17 N 7.0132 1.309 0.0 0
M  V30 18 C 6.0621 0.9999 0.0 0
M  V30 19 C 7.601 0.5 0.0 0
M  V30 20 C 6.0621 0.0 0.0 0
M  V30 21 C 5.1961 1.4999 0.0 0
M  V30 22 C 7.0132 -0.309 0.0 0
M  V30 23 C 5.1961 -0.5 0.0 0
M  V30 24 C 4.3301 0.9999 0.0 0
M  V30 25 C 4.3301 0.0 0.0 0
M  V30 26 C 3.4641 -0.5 0.0 0
M  V30 27 O 3.4641 -1.5 0.0 0
M  V30 28 N 2.598 0.0 0.0 0
M  V30 29 C 1.732 -0.5 0.0 0 CFG=2
M  V30 30 C 1.732 -1.5 0.0 0
M  V30 31 C 0.866 0.0 0.0 0
M  V30 32 C 0.866 -1.9999 0.0 0
M  V30 33 C 2.598 -2.0 0.0 0
M  V30 34 C 0.0 -0.5 0.0 0
M  V30 35 C 0.866 -2.9999 0.0 0
M  V30 36 C 2.598 -3.0 0.0 0
M  V30 37 C 1.732 -3.5 0.0 0
M  V30 END ATOM
M  V30 BEGIN BOND
M  V30 1 2 1 2
M  V30 2 1 2 3
M  V30 3 1 2 4
M  V30 4 2 4 5
M  V30 5 1 4 6
M  V30 6 1 5 7
M  V30 7 2 6 8
M  V30 8 2 7 9
M  V30 9 1 9 10
M  V30 10 2 10 11
M  V30 11 1 10 12
M  V30 12 1 11 13
M  V30 13 1 11 14
M  V30 14 2 12 15
M  V30 15 2 13 16
M  V30 16 1 14 17
M  V30 17 1 17 18
M  V30 18 1 17 19
M  V30 19 2 18 20
M  V30 20 1 18 21
M  V30 21 2 19 22
M  V30 22 1 20 23
M  V30 23 2 21 24
M  V30 24 2 23 25
M  V30 25 1 25 26
M  V30 26 2 26 27
M  V30 27 1 26 28
M  V30 28 1 29 28 CFG=3
M  V30 29 1 29 30
M  V30 30 1 29 31
M  V30 31 2 30 32
M  V30 32 1 30 33
M  V30 33 1 31 34
M  V30 34 1 32 35
M  V30 35 2 33 36
M  V30 36 2 35 37
M  V30 37 1 8 9
M  V30 38 1 15 16
M  V30 39 1 20 22
M  V30 40 1 24 25
M  V30 41 1 36 37
M  V30 END BOND
M  V30 BEGIN COLLECTION
M  V30 MDLV30/STERAC1 ATOMS=(1 29)
M  V30 END COLLECTION
M  V30 END CTAB
M  END
>  <Molecule ChEMBL ID>
CHEMBL3695810

>  <Smiles>
CCC(NC(=O)c1ccc2c(ccn2Cc2ccccc2-c2ccc(C(=O)O)cc2)c1)c1ccccc1

>  <IC50_nM>
10

>  <Assay Description>
Lanthascreen Competitive Binding Assay: The assay was performed according to manufacturer protocol. A mixture of nM GST-PPARG-LBD, 5 nM Tb-GST-antibody, 5 nM Fluormone Pan-PPAR Green, and serial dilutions of the experimental compound, beginning at 10 ׬M downwards, was added to wells of black 384-well low-volume plates (Greiner) to a total volume of 18 ׬L. All dilutions were made in TR-FRET assay buffer C. DMSO at 2% final concentration was used as a no-ligand control. Experiment was performed in triplicate, and incubated for 2 hours in the dark prior to assay read in Perkin Elmer ViewLux ultra HTS microplate reader. FRET signal was measured by excitation at 340 nm and emission at 520 nm for fluorescein and 490 nm for terbium. Fold change over DMSO was calculated using GraphPad Prism Software (La Jolla, Calif.) by calculating 520 nm/490 nm ratio. Graphs were plotted as fold change of FRET signal for compound treatment over DMSO-only control.

$$$$
CHEMBL3695906
Actelion Java MolfileCreator 2.0

  0  0  0  0  0  0              0 V3000
M  V30 BEGIN CTAB
M  V30 COUNTS 43 49 0 0 0
M  V30 BEGIN ATOM
M  V30 1 O 3.4641 -0.4999 0.0 0
M  V30 2 C 2.598 0.0 0.0 0
M  V30 3 N 1.732 -0.4999 0.0 0
M  V30 4 C 2.598 1.0 0.0 0
M  V30 5 C 0.866 0.0 0.0 0 CFG=2
M  V30 6 C 1.732 1.4999 0.0 0
M  V30 7 C 3.4641 1.5 0.0 0
M  V30 8 C 0.0 -0.4999 0.0 0
M  V30 9 C 0.866 1.0 0.0 0
M  V30 10 C 1.732 2.4999 0.0 0
M  V30 11 C 3.4641 2.5 0.0 0
M  V30 12 C 0.0 -1.4999 0.0 0
M  V30 13 C -0.866 0.0 0.0 0
M  V30 14 C 2.598 3.0 0.0 0
M  V30 15 C 0.9889 3.1691 0.0 0
M  V30 16 C -0.866 -1.9999 0.0 0
M  V30 17 C -1.732 -0.4999 0.0 0
M  V30 18 N 2.3901 3.9781 0.0 0
M  V30 19 C 1.3956 4.0826 0.0 0
M  V30 20 C 0.0107 2.9612 0.0 0
M  V30 21 C -1.732 -1.4999 0.0 0
M  V30 22 C -0.866 -2.9999 0.0 0
M  V30 23 C 3.0592 4.7212 0.0 0
M  V30 24 C 0.8956 4.9487 0.0 0
M  V30 25 C -0.366 -3.866 0.0 0
M  V30 26 C -1.366 -3.866 0.0 0
M  V30 27 C 2.7502 5.6723 0.0 0
M  V30 28 C 3.4194 6.4154 0.0 0
M  V30 29 C 1.7721 5.8802 0.0 0
M  V30 30 C 3.1103 7.3665 0.0 0
M  V30 31 C 1.4631 6.8313 0.0 0
M  V30 32 C 2.1322 7.5744 0.0 0
M  V30 33 C 1.8232 8.5255 0.0 0
M  V30 34 C 2.4923 9.2686 0.0 0
M  V30 35 C 0.845 8.7334 0.0 0
M  V30 36 C 3.4705 9.0607 0.0 0
M  V30 37 C 2.1833 10.2197 0.0 0
M  V30 38 C 0.536 9.6844 0.0 0
M  V30 39 N 3.8772 8.1472 0.0 0
M  V30 40 N 4.2136 9.7298 0.0 0
M  V30 41 C 1.2051 10.4276 0.0 0
M  V30 42 N 4.8717 8.2517 0.0 0
M  V30 43 N 5.0796 9.2298 0.0 0
M  V30 END ATOM
M  V30 BEGIN BOND
M  V30 1 2 1 2
M  V30 2 1 2 3
M  V30 3 1 2 4
M  V30 4 1 3 5
M  V30 5 2 4 6
M  V30 6 1 4 7
M  V30 7 1 5 8
M  V30 8 1 5 9 CFG=3
M  V30 9 1 6 10
M  V30 10 2 7 11
M  V30 11 2 8 12
M  V30 12 1 8 13
M  V30 13 2 10 14
M  V30 14 1 10 15
M  V30 15 1 12 16
M  V30 16 2 13 17
M  V30 17 1 14 18
M  V30 18 2 15 19
M  V30 19 1 15 20
M  V30 20 2 16 21
M  V30 21 1 16 22
M  V30 22 1 18 23
M  V30 23 1 19 24
M  V30 24 1 22 25
M  V30 25 1 22 26
M  V30 26 1 23 27
M  V30 27 2 27 28
M  V30 28 1 27 29
M  V30 29 1 28 30
M  V30 30 2 29 31
M  V30 31 2 30 32
M  V30 32 1 32 33
M  V30 33 2 33 34
M  V30 34 1 33 35
M  V30 35 1 34 36
M  V30 36 1 34 37
M  V30 37 2 35 38
M  V30 38 2 36 39
M  V30 39 1 36 40
M  V30 40 2 37 41
M  V30 41 1 39 42
M  V30 42 1 40 43
M  V30 43 1 11 14
M  V30 44 1 17 21
M  V30 45 1 18 19
M  V30 46 1 25 26
M  V30 47 1 31 32
M  V30 48 1 38 41
M  V30 49 2 42 43
M  V30 END BOND
M  V30 BEGIN COLLECTION
M  V30 MDLV30/STEABS ATOMS=(1 5)
M  V30 END COLLECTION
M  V30 END CTAB
M  END
>  <Molecule ChEMBL ID>
CHEMBL3695906

>  <Smiles>
Cc1c(C)n(Cc2ccc(-c3ccccc3-c3nnn[nH]3)cc2)c2ccc(C(=O)N[C@@H](C)c3cccc(C4CC4)c3)cc12

>  <IC50_nM>
10

>  <Assay Description>
Lanthascreen Competitive Binding Assay: The assay was performed according to manufacturer protocol. A mixture of nM GST-PPARG-LBD, 5 nM Tb-GST-antibody, 5 nM Fluormone Pan-PPAR Green, and serial dilutions of the experimental compound, beginning at 10 ׬M downwards, was added to wells of black 384-well low-volume plates (Greiner) to a total volume of 18 ׬L. All dilutions were made in TR-FRET assay buffer C. DMSO at 2% final concentration was used as a no-ligand control. Experiment was performed in triplicate, and incubated for 2 hours in the dark prior to assay read in Perkin Elmer ViewLux ultra HTS microplate reader. FRET signal was measured by excitation at 340 nm and emission at 520 nm for fluorescein and 490 nm for terbium. Fold change over DMSO was calculated using GraphPad Prism Software (La Jolla, Calif.) by calculating 520 nm/490 nm ratio. Graphs were plotted as fold change of FRET signal for compound treatment over DMSO-only control.

$$$$
CHEMBL562864
Actelion Java MolfileCreator 2.0

  0  0  0  0  0  0              0 V3000
M  V30 BEGIN CTAB
M  V30 COUNTS 39 42 0 0 0
M  V30 BEGIN ATOM
M  V30 1 Cl 6.0664 -5.852 0.0 0
M  V30 2 C 6.6542 -5.043 0.0 0
M  V30 3 C 7.6487 -5.1475 0.0 0
M  V30 4 C 6.2475 -4.1294 0.0 0
M  V30 5 C 8.2365 -4.3385 0.0 0
M  V30 6 C 6.8353 -3.3204 0.0 0
M  V30 7 C 7.8298 -3.4249 0.0 0
M  V30 8 C 8.4176 -2.6159 0.0 0
M  V30 9 O 9.4121 -2.7205 0.0 0
M  V30 10 C 8.0108 -1.7024 0.0 0
M  V30 11 C 8.5108 -0.8364 0.0 0
M  V30 12 C 7.0327 -1.4945 0.0 0
M  V30 13 C 7.8417 -0.0932 0.0 0
M  V30 14 C 9.489 -0.6284 0.0 0
M  V30 15 N 6.9282 -0.5 0.0 0
M  V30 16 C 6.2895 -2.1636 0.0 0
M  V30 17 C 8.1507 0.8577 0.0 0
M  V30 18 C 9.798 0.3225 0.0 0
M  V30 19 C 6.0621 0.0 0.0 0
M  V30 20 C 9.1289 1.0657 0.0 0
M  V30 21 C 5.1961 -0.5 0.0 0
M  V30 22 O 9.4379 2.0167 0.0 0
M  V30 23 C 4.3301 0.0 0.0 0
M  V30 24 C 5.1961 -1.4999 0.0 0
M  V30 25 C 8.7687 2.7599 0.0 0
M  V30 26 C 3.4641 -0.5 0.0 0
M  V30 27 C 4.3301 -1.9999 0.0 0
M  V30 28 F 8.0256 2.0907 0.0 0
M  V30 29 F 8.0996 3.503 0.0 0
M  V30 30 F 9.5119 3.429 0.0 0
M  V30 31 O 2.598 0.0 0.0 0
M  V30 32 C 3.4641 -1.4999 0.0 0
M  V30 33 C 1.732 -0.5 0.0 0 CFG=1
M  V30 34 C 1.732 -1.5 0.0 0
M  V30 35 C 0.866 0.0 0.0 0
M  V30 36 O 0.866 -2.0 0.0 0
M  V30 37 O 2.598 -1.9999 0.0 0
M  V30 38 C 0.866 1.0 0.0 0
M  V30 39 C 0.0 -0.5 0.0 0
M  V30 END ATOM
M  V30 BEGIN BOND
M  V30 1 1 1 2
M  V30 2 2 2 3
M  V30 3 1 2 4
M  V30 4 1 3 5
M  V30 5 2 4 6
M  V30 6 2 5 7
M  V30 7 1 7 8
M  V30 8 2 8 9
M  V30 9 1 8 10
M  V30 10 1 10 11
M  V30 11 2 10 12
M  V30 12 2 11 13
M  V30 13 1 11 14
M  V30 14 1 12 15
M  V30 15 1 12 16
M  V30 16 1 13 17
M  V30 17 2 14 18
M  V30 18 1 15 19
M  V30 19 2 17 20
M  V30 20 1 19 21
M  V30 21 1 20 22
M  V30 22 2 21 23
M  V30 23 1 21 24
M  V30 24 1 22 25
M  V30 25 1 23 26
M  V30 26 2 24 27
M  V30 27 1 25 28
M  V30 28 1 25 29
M  V30 29 1 25 30
M  V30 30 1 26 31
M  V30 31 2 26 32
M  V30 32 1 33 31 CFG=1
M  V30 33 1 33 34
M  V30 34 1 33 35
M  V30 35 2 34 36
M  V30 36 1 34 37
M  V30 37 1 35 38
M  V30 38 1 35 39
M  V30 39 1 6 7
M  V30 40 1 13 15
M  V30 41 1 18 20
M  V30 42 1 27 32
M  V30 END BOND
M  V30 BEGIN COLLECTION
M  V30 MDLV30/STEABS ATOMS=(1 33)
M  V30 END COLLECTION
M  V30 END CTAB
M  END
>  <Molecule ChEMBL ID>
CHEMBL562864

>  <Smiles>
Cc1c(C(=O)c2ccc(Cl)cc2)c2ccc(OC(F)(F)F)cc2n1Cc1cccc(O[C@@H](C(=O)O)C(C)C)c1

>  <IC50_nM>
10

>  <Assay Description>
Inhibition of human PPARgamma receptor by scintillation proximity assay

$$$$
CHEMBL3695779
Actelion Java MolfileCreator 2.0

  0  0  0  0  0  0              0 V3000
M  V30 BEGIN CTAB
M  V30 COUNTS 41 45 0 0 0
M  V30 BEGIN ATOM
M  V30 1 O 11.8592 -3.5669 0.0 0
M  V30 2 C 10.8811 -3.7748 0.0 0
M  V30 3 O 10.212 -3.0316 0.0 0
M  V30 4 C 10.5721 -4.7258 0.0 0
M  V30 5 C 9.5939 -4.9337 0.0 0
M  V30 6 C 11.2412 -5.469 0.0 0
M  V30 7 C 8.9248 -4.1906 0.0 0
M  V30 8 C 9.2849 -5.8848 0.0 0
M  V30 9 C 10.9322 -6.42 0.0 0
M  V30 10 C 9.2338 -3.2395 0.0 0
M  V30 11 C 7.9466 -4.3985 0.0 0
M  V30 12 C 9.954 -6.6279 0.0 0
M  V30 13 C 8.5647 -2.4964 0.0 0
M  V30 14 C 7.2775 -3.6554 0.0 0
M  V30 15 C 7.5865 -2.7043 0.0 0
M  V30 16 C 6.9174 -1.9612 0.0 0
M  V30 17 N 5.9392 -2.1691 0.0 0
M  V30 18 C 5.1961 -1.4999 0.0 0
M  V30 19 C 5.5325 -3.0826 0.0 0
M  V30 20 C 4.3301 -1.9999 0.0 0
M  V30 21 C 5.1961 -0.4999 0.0 0
M  V30 22 C 4.538 -2.9781 0.0 0
M  V30 23 C 6.0325 -3.9487 0.0 0
M  V30 24 C 3.4641 -1.5 0.0 0
M  V30 25 C 4.3301 0.0 0.0 0
M  V30 26 C 3.8689 -3.7212 0.0 0
M  V30 27 C 3.4641 -0.5 0.0 0
M  V30 28 C 2.598 0.0 0.0 0
M  V30 29 O 2.598 1.0 0.0 0
M  V30 30 N 1.732 -0.5 0.0 0
M  V30 31 C 0.866 0.0 0.0 0
M  V30 32 C 0.0 -0.5 0.0 0
M  V30 33 C -0.866 0.0 0.0 0
M  V30 34 C 0.0 -1.4999 0.0 0
M  V30 35 C -1.732 -0.4999 0.0 0
M  V30 36 C -0.866 -1.9999 0.0 0
M  V30 37 O -2.598 0.0 0.0 0
M  V30 38 C -1.732 -1.4999 0.0 0
M  V30 39 O -0.866 -2.9999 0.0 0
M  V30 40 C -3.4641 -0.4999 0.0 0
M  V30 41 C 0.0 -3.4999 0.0 0
M  V30 END ATOM
M  V30 BEGIN BOND
M  V30 1 2 1 2
M  V30 2 1 2 3
M  V30 3 1 2 4
M  V30 4 2 4 5
M  V30 5 1 4 6
M  V30 6 1 5 7
M  V30 7 1 5 8
M  V30 8 2 6 9
M  V30 9 2 7 10
M  V30 10 1 7 11
M  V30 11 2 8 12
M  V30 12 1 10 13
M  V30 13 2 11 14
M  V30 14 2 13 15
M  V30 15 1 15 16
M  V30 16 1 16 17
M  V30 17 1 17 18
M  V30 18 1 17 19
M  V30 19 2 18 20
M  V30 20 1 18 21
M  V30 21 2 19 22
M  V30 22 1 19 23
M  V30 23 1 20 24
M  V30 24 2 21 25
M  V30 25 1 22 26
M  V30 26 2 24 27
M  V30 27 1 27 28
M  V30 28 2 28 29
M  V30 29 1 28 30
M  V30 30 1 30 31
M  V30 31 1 31 32
M  V30 32 2 32 33
M  V30 33 1 32 34
M  V30 34 1 33 35
M  V30 35 2 34 36
M  V30 36 1 35 37
M  V30 37 2 35 38
M  V30 38 1 36 39
M  V30 39 1 37 40
M  V30 40 1 39 41
M  V30 41 1 9 12
M  V30 42 1 14 15
M  V30 43 1 20 22
M  V30 44 1 25 27
M  V30 45 1 36 38
M  V30 END BOND
M  V30 END CTAB
M  END
>  <Molecule ChEMBL ID>
CHEMBL3695779

>  <Smiles>
COc1cc(CNC(=O)c2ccc3c(c2)c(C)c(C)n3Cc2ccc(-c3ccccc3C(=O)O)cc2)cc(OC)c1

>  <IC50_nM>
10

>  <Assay Description>
Lanthascreen Competitive Binding Assay: The assay was performed according to manufacturer protocol. A mixture of nM GST-PPARG-LBD, 5 nM Tb-GST-antibody, 5 nM Fluormone Pan-PPAR Green, and serial dilutions of the experimental compound, beginning at 10 ׬M downwards, was added to wells of black 384-well low-volume plates (Greiner) to a total volume of 18 ׬L. All dilutions were made in TR-FRET assay buffer C. DMSO at 2% final concentration was used as a no-ligand control. Experiment was performed in triplicate, and incubated for 2 hours in the dark prior to assay read in Perkin Elmer ViewLux ultra HTS microplate reader. FRET signal was measured by excitation at 340 nm and emission at 520 nm for fluorescein and 490 nm for terbium. Fold change over DMSO was calculated using GraphPad Prism Software (La Jolla, Calif.) by calculating 520 nm/490 nm ratio. Graphs were plotted as fold change of FRET signal for compound treatment over DMSO-only control.

$$$$
CHEMBL3699366
Actelion Java MolfileCreator 2.0

  0  0  0  0  0  0              0 V3000
M  V30 BEGIN CTAB
M  V30 COUNTS 40 44 0 0 0
M  V30 BEGIN ATOM
M  V30 1 Cl 4.3301 -2.9999 0.0 0
M  V30 2 C 4.3301 -1.9999 0.0 0
M  V30 3 C 5.1961 -1.5 0.0 0
M  V30 4 C 3.4641 -1.5 0.0 0
M  V30 5 Cl 6.0621 -2.0 0.0 0
M  V30 6 C 5.1961 -0.5 0.0 0
M  V30 7 C 3.4641 -0.5 0.0 0
M  V30 8 C 4.3301 0.0 0.0 0
M  V30 9 C 2.598 0.0 0.0 0 CFG=1
M  V30 10 N 1.732 -0.5 0.0 0
M  V30 11 C 2.598 1.0 0.0 0
M  V30 12 C 0.866 0.0 0.0 0
M  V30 13 O 0.866 1.0 0.0 0
M  V30 14 C 0.0 -0.5 0.0 0
M  V30 15 C 0.0 -1.4999 0.0 0
M  V30 16 C -0.866 0.0 0.0 0
M  V30 17 C -0.866 -1.9999 0.0 0
M  V30 18 C -1.732 -0.4999 0.0 0
M  V30 19 C -1.732 -1.4999 0.0 0
M  V30 20 C -1.0739 -2.9781 0.0 0
M  V30 21 N -2.4751 -2.1691 0.0 0
M  V30 22 C -2.0684 -3.0826 0.0 0
M  V30 23 C -0.4048 -3.7212 0.0 0
M  V30 24 C -3.4533 -1.9612 0.0 0
M  V30 25 C -2.5684 -3.9487 0.0 0
M  V30 26 C -4.1224 -2.7043 0.0 0
M  V30 27 C -5.1006 -2.4964 0.0 0
M  V30 28 C -3.8134 -3.6554 0.0 0
M  V30 29 C -5.7697 -3.2395 0.0 0
M  V30 30 C -4.4825 -4.3985 0.0 0
M  V30 31 C -5.4607 -4.1906 0.0 0
M  V30 32 C -6.1298 -4.9337 0.0 0
M  V30 33 C -7.108 -4.7258 0.0 0
M  V30 34 C -5.8208 -5.8848 0.0 0
M  V30 35 C -7.417 -3.7748 0.0 0
M  V30 36 C -7.7771 -5.469 0.0 0
M  V30 37 C -6.4899 -6.6279 0.0 0
M  V30 38 O -6.7478 -3.0316 0.0 0
M  V30 39 O -8.3951 -3.5669 0.0 0
M  V30 40 C -7.4681 -6.42 0.0 0
M  V30 END ATOM
M  V30 BEGIN BOND
M  V30 1 1 1 2
M  V30 2 2 2 3
M  V30 3 1 2 4
M  V30 4 1 3 5
M  V30 5 1 3 6
M  V30 6 2 4 7
M  V30 7 2 6 8
M  V30 8 1 7 9
M  V30 9 1 9 10
M  V30 10 1 9 11 CFG=1
M  V30 11 1 10 12
M  V30 12 2 12 13
M  V30 13 1 12 14
M  V30 14 2 14 15
M  V30 15 1 14 16
M  V30 16 1 15 17
M  V30 17 2 16 18
M  V30 18 2 17 19
M  V30 19 1 17 20
M  V30 20 1 19 21
M  V30 21 2 20 22
M  V30 22 1 20 23
M  V30 23 1 21 24
M  V30 24 1 22 25
M  V30 25 1 24 26
M  V30 26 2 26 27
M  V30 27 1 26 28
M  V30 28 1 27 29
M  V30 29 2 28 30
M  V30 30 2 29 31
M  V30 31 1 31 32
M  V30 32 2 32 33
M  V30 33 1 32 34
M  V30 34 1 33 35
M  V30 35 1 33 36
M  V30 36 2 34 37
M  V30 37 2 35 38
M  V30 38 1 35 39
M  V30 39 2 36 40
M  V30 40 1 7 8
M  V30 41 1 18 19
M  V30 42 1 21 22
M  V30 43 1 30 31
M  V30 44 1 37 40
M  V30 END BOND
M  V30 BEGIN COLLECTION
M  V30 MDLV30/STEABS ATOMS=(1 9)
M  V30 END COLLECTION
M  V30 END CTAB
M  END
>  <Molecule ChEMBL ID>
CHEMBL3699366

>  <Smiles>
Cc1c(C)n(Cc2ccc(-c3ccccc3C(=O)O)cc2)c2ccc(C(=O)N[C@@H](C)c3ccc(Cl)c(Cl)c3)cc12

>  <IC50_nM>
10

>  <Assay Description>
Lanthascreen Competitive Binding Assay: The assay was performed according to manufacturer protocol. A mixture of nM GST-PPARG-LBD, 5 nM Tb-GST-antibody, 5 nM Fluormone Pan-PPAR Green, and serial dilutions of the experimental compound, beginning at 10 ׬M downwards, was added to wells of black 384-well low-volume plates (Greiner) to a total volume of 18 ׬L. All dilutions were made in TR-FRET assay buffer C. DMSO at 2% final concentration was used as a no-ligand control. Experiment was performed in triplicate, and incubated for 2 hours in the dark prior to assay read in Perkin Elmer ViewLux ultra HTS microplate reader. FRET signal was measured by excitation at 340 nm and emission at 520 nm for fluorescein and 490 nm for terbium. Fold change over DMSO was calculated using GraphPad Prism Software (La Jolla, Calif.) by calculating 520 nm/490 nm ratio. Graphs were plotted as fold change of FRET signal for compound treatment over DMSO-only control.

$$$$
CHEMBL121
Actelion Java MolfileCreator 2.0

  0  0  0  0  0  0              0 V3000
M  V30 BEGIN CTAB
M  V30 COUNTS 25 27 0 0 0
M  V30 BEGIN ATOM
M  V30 1 S 7.8987 0.0054 0.0 0
M  V30 2 C 8.8769 -0.2024 0.0 0
M  V30 3 C 7.7942 0.9999 0.0 0 CFG=2
M  V30 4 O 9.2836 -1.1159 0.0 0
M  V30 5 N 9.3769 0.6635 0.0 0
M  V30 6 C 8.7077 1.4067 0.0 0
M  V30 7 C 6.9282 1.4999 0.0 0
M  V30 8 O 8.9156 2.3848 0.0 0
M  V30 9 C 6.0621 0.9999 0.0 0
M  V30 10 C 5.1961 1.4999 0.0 0
M  V30 11 C 6.0621 0.0 0.0 0
M  V30 12 C 4.3301 0.9999 0.0 0
M  V30 13 C 5.1961 -0.5 0.0 0
M  V30 14 C 4.3301 0.0 0.0 0
M  V30 15 O 3.4641 -0.5 0.0 0
M  V30 16 C 2.598 0.0 0.0 0
M  V30 17 C 1.732 -0.5 0.0 0
M  V30 18 N 0.866 0.0 0.0 0
M  V30 19 C 0.866 1.0 0.0 0
M  V30 20 C 0.0 -0.5 0.0 0
M  V30 21 N 1.732 1.4999 0.0 0
M  V30 22 C 0.0 1.4999 0.0 0
M  V30 23 C 1.732 2.5 0.0 0
M  V30 24 C 0.0 2.5 0.0 0
M  V30 25 C 0.866 3.0 0.0 0
M  V30 END ATOM
M  V30 BEGIN BOND
M  V30 1 1 1 2
M  V30 2 1 1 3
M  V30 3 2 2 4
M  V30 4 1 2 5
M  V30 5 1 3 6
M  V30 6 1 3 7 CFG=1
M  V30 7 2 6 8
M  V30 8 1 7 9
M  V30 9 2 9 10
M  V30 10 1 9 11
M  V30 11 1 10 12
M  V30 12 2 11 13
M  V30 13 2 12 14
M  V30 14 1 14 15
M  V30 15 1 15 16
M  V30 16 1 16 17
M  V30 17 1 17 18
M  V30 18 1 18 19
M  V30 19 1 18 20
M  V30 20 2 19 21
M  V30 21 1 19 22
M  V30 22 1 21 23
M  V30 23 2 22 24
M  V30 24 2 23 25
M  V30 25 1 5 6
M  V30 26 1 13 14
M  V30 27 1 24 25
M  V30 END BOND
M  V30 BEGIN COLLECTION
M  V30 MDLV30/STERAC1 ATOMS=(1 3)
M  V30 END COLLECTION
M  V30 END CTAB
M  END
>  <Molecule ChEMBL ID>
CHEMBL121

>  <Smiles>
CN(CCOc1ccc(CC2SC(=O)NC2=O)cc1)c1ccccn1

>  <IC50_nM>
10

>  <Assay Description>
Displacement of [3H]rosiglitazone from human recombinant PPARgamma receptor expressed in Escherichia coli

$$$$
CHEMBL3699442
Actelion Java MolfileCreator 2.0

  0  0  0  0  0  0              0 V3000
M  V30 BEGIN CTAB
M  V30 COUNTS 40 45 0 0 0
M  V30 BEGIN ATOM
M  V30 1 O 9.4516 5.7369 0.0 0
M  V30 2 C 9.1426 4.7859 0.0 0
M  V30 3 O 8.1645 4.578 0.0 0
M  V30 4 C 9.8118 4.0427 0.0 0
M  V30 5 C 9.5027 3.0917 0.0 0
M  V30 6 C 10.7899 4.2506 0.0 0
M  V30 7 C 8.5246 2.8838 0.0 0
M  V30 8 C 10.1719 2.3485 0.0 0
M  V30 9 C 11.459 3.5075 0.0 0
M  V30 10 C 7.8555 3.6269 0.0 0
M  V30 11 C 8.2156 1.9327 0.0 0
M  V30 12 C 11.15 2.5564 0.0 0
M  V30 13 C 6.8773 3.419 0.0 0
M  V30 14 C 7.2374 1.7248 0.0 0
M  V30 15 C 6.5683 2.4679 0.0 0
M  V30 16 C 5.5902 2.26 0.0 0
M  V30 17 N 5.2811 1.309 0.0 0
M  V30 18 C 4.3301 1.0 0.0 0
M  V30 19 C 5.8689 0.5 0.0 0
M  V30 20 C 4.3301 0.0 0.0 0
M  V30 21 C 3.4641 1.5 0.0 0
M  V30 22 C 5.2811 -0.309 0.0 0
M  V30 23 C 6.8689 0.5 0.0 0
M  V30 24 C 3.4641 -0.4999 0.0 0
M  V30 25 C 2.598 0.9999 0.0 0
M  V30 26 C 5.5902 -1.26 0.0 0
M  V30 27 C 2.598 0.0 0.0 0
M  V30 28 C 1.732 -0.5 0.0 0
M  V30 29 O 1.732 -1.5 0.0 0
M  V30 30 N 0.866 0.0 0.0 0
M  V30 31 C 0.0 -0.5 0.0 0 CFG=2
M  V30 32 C -0.866 0.0 0.0 0
M  V30 33 C 0.0 -1.4999 0.0 0
M  V30 34 O -1.732 -0.4999 0.0 0
M  V30 35 C -0.866 -1.9999 0.0 0
M  V30 36 C -1.732 -1.4999 0.0 0
M  V30 37 C -0.866 -2.9999 0.0 0
M  V30 38 C -2.598 -1.9999 0.0 0
M  V30 39 C -1.732 -3.4999 0.0 0
M  V30 40 C -2.598 -2.9999 0.0 0
M  V30 END ATOM
M  V30 BEGIN BOND
M  V30 1 2 1 2
M  V30 2 1 2 3
M  V30 3 1 2 4
M  V30 4 2 4 5
M  V30 5 1 4 6
M  V30 6 1 5 7
M  V30 7 1 5 8
M  V30 8 2 6 9
M  V30 9 2 7 10
M  V30 10 1 7 11
M  V30 11 2 8 12
M  V30 12 1 10 13
M  V30 13 2 11 14
M  V30 14 2 13 15
M  V30 15 1 15 16
M  V30 16 1 16 17
M  V30 17 1 17 18
M  V30 18 1 17 19
M  V30 19 2 18 20
M  V30 20 1 18 21
M  V30 21 2 19 22
M  V30 22 1 19 23
M  V30 23 1 20 24
M  V30 24 2 21 25
M  V30 25 1 22 26
M  V30 26 2 24 27
M  V30 27 1 27 28
M  V30 28 2 28 29
M  V30 29 1 28 30
M  V30 30 1 31 30 CFG=1
M  V30 31 1 31 32
M  V30 32 1 31 33
M  V30 33 1 32 34
M  V30 34 1 33 35
M  V30 35 1 34 36
M  V30 36 1 35 37
M  V30 37 1 36 38
M  V30 38 2 37 39
M  V30 39 2 38 40
M  V30 40 1 9 12
M  V30 41 1 14 15
M  V30 42 1 20 22
M  V30 43 1 25 27
M  V30 44 2 35 36
M  V30 45 1 39 40
M  V30 END BOND
M  V30 BEGIN COLLECTION
M  V30 MDLV30/STERAC1 ATOMS=(1 31)
M  V30 END COLLECTION
M  V30 END CTAB
M  END
>  <Molecule ChEMBL ID>
CHEMBL3699442

>  <Smiles>
Cc1c(C)n(Cc2ccc(-c3ccccc3C(=O)O)cc2)c2ccc(C(=O)NC3COc4ccccc4C3)cc12

>  <IC50_nM>
10

>  <Assay Description>
Lanthascreen Competitive Binding Assay: The assay was performed according to manufacturer protocol. A mixture of nM GST-PPARG-LBD, 5 nM Tb-GST-antibody, 5 nM Fluormone Pan-PPAR Green, and serial dilutions of the experimental compound, beginning at 10 ׬M downwards, was added to wells of black 384-well low-volume plates (Greiner) to a total volume of 18 ׬L. All dilutions were made in TR-FRET assay buffer C. DMSO at 2% final concentration was used as a no-ligand control. Experiment was performed in triplicate, and incubated for 2 hours in the dark prior to assay read in Perkin Elmer ViewLux ultra HTS microplate reader. FRET signal was measured by excitation at 340 nm and emission at 520 nm for fluorescein and 490 nm for terbium. Fold change over DMSO was calculated using GraphPad Prism Software (La Jolla, Calif.) by calculating 520 nm/490 nm ratio. Graphs were plotted as fold change of FRET signal for compound treatment over DMSO-only control.

$$$$
CHEMBL1082079
Actelion Java MolfileCreator 2.0

  0  0  0  0  0  0              0 V3000
M  V30 BEGIN CTAB
M  V30 COUNTS 36 38 0 0 0
M  V30 BEGIN ATOM
M  V30 1 F 1.299 6.0 0.0 0
M  V30 2 C 2.598 6.75 0.0 0
M  V30 3 C 3.8971 6.0 0.0 0
M  V30 4 C 2.598 8.25 0.0 0
M  V30 5 C 3.8971 4.5 0.0 0
M  V30 6 C 5.1961 6.75 0.0 0
M  V30 7 C 3.8971 9.0 0.0 0
M  V30 8 O 2.598 3.7499 0.0 0
M  V30 9 N 5.1961 3.75 0.0 0
M  V30 10 C 5.1961 8.25 0.0 0
M  V30 11 C 3.8971 10.5 0.0 0
M  V30 12 C 5.1961 2.25 0.0 0
M  V30 13 F 2.3971 10.5 0.0 0
M  V30 14 F 3.8971 12.0 0.0 0
M  V30 15 F 5.3971 10.5 0.0 0
M  V30 16 C 6.4951 1.5 0.0 0
M  V30 17 C 6.4951 0.0 0.0 0
M  V30 18 C 7.7942 2.25 0.0 0
M  V30 19 O 5.1961 -0.75 0.0 0
M  V30 20 C 7.7942 -0.7499 0.0 0
M  V30 21 C 9.0932 1.5 0.0 0
M  V30 22 C 3.8971 0.0 0.0 0
M  V30 23 C 9.0932 0.0 0.0 0
M  V30 24 C 10.3923 2.25 0.0 0
M  V30 25 C 2.598 -0.75 0.0 0
M  V30 26 C 11.6913 1.5 0.0 0
M  V30 27 C 10.3923 3.75 0.0 0
M  V30 28 C 1.299 0.0 0.0 0
M  V30 29 C 12.9903 2.25 0.0 0
M  V30 30 C 11.6913 0.0 0.0 0
M  V30 31 C 11.6913 4.5 0.0 0
M  V30 32 C 0.0 -0.75 0.0 0
M  V30 33 C 12.9903 3.75 0.0 0
M  V30 34 C 14.2894 4.5 0.0 0
M  V30 35 O 15.5884 3.75 0.0 0
M  V30 36 O 14.2894 6.0 0.0 0
M  V30 END ATOM
M  V30 BEGIN BOND
M  V30 1 1 1 2
M  V30 2 2 2 3
M  V30 3 1 2 4
M  V30 4 1 3 5
M  V30 5 1 3 6
M  V30 6 2 4 7
M  V30 7 2 5 8
M  V30 8 1 5 9
M  V30 9 2 6 10
M  V30 10 1 7 11
M  V30 11 1 9 12
M  V30 12 1 11 13
M  V30 13 1 11 14
M  V30 14 1 11 15
M  V30 15 1 12 16
M  V30 16 2 16 17
M  V30 17 1 16 18
M  V30 18 1 17 19
M  V30 19 1 17 20
M  V30 20 2 18 21
M  V30 21 1 19 22
M  V30 22 2 20 23
M  V30 23 1 21 24
M  V30 24 1 22 25
M  V30 25 2 24 26
M  V30 26 1 24 27
M  V30 27 1 25 28
M  V30 28 1 26 29
M  V30 29 1 26 30
M  V30 30 2 27 31
M  V30 31 1 28 32
M  V30 32 2 29 33
M  V30 33 1 33 34
M  V30 34 2 34 35
M  V30 35 1 34 36
M  V30 36 1 7 10
M  V30 37 1 21 23
M  V30 38 1 31 33
M  V30 END BOND
M  V30 END CTAB
M  END
>  <Molecule ChEMBL ID>
CHEMBL1082079

>  <Smiles>
CCCCOc1ccc(-c2ccc(C(=O)O)cc2C)cc1CNC(=O)c1ccc(C(F)(F)F)cc1F

>  <IC50_nM>
10

>  <Assay Description>
Antagonist activity at PPARgamma co-transfected with GAL4-PPAR fusion protein assessed as inhibition of TIPP703-induced response by luciferase reporter gene assay

$$$$
CHEMBL3678158
Actelion Java MolfileCreator 2.0

  0  0  0  0  0  0              0 V3000
M  V30 BEGIN CTAB
M  V30 COUNTS 40 43 0 0 0
M  V30 BEGIN ATOM
M  V30 1 F 6.0621 -1.9999 0.0 0
M  V30 2 C 5.1961 -1.4999 0.0 0
M  V30 3 C 5.1961 -0.5 0.0 0
M  V30 4 C 4.3301 -1.9999 0.0 0
M  V30 5 C 4.3301 0.0 0.0 0
M  V30 6 C 6.0621 0.0 0.0 0
M  V30 7 C 3.4641 -1.5 0.0 0
M  V30 8 C 3.4641 -0.5 0.0 0
M  V30 9 N 6.0621 1.0 0.0 0
M  V30 10 O 2.598 0.0 0.0 0
M  V30 11 C 6.8711 1.5877 0.0 0
M  V30 12 C 5.2531 1.5877 0.0 0
M  V30 13 C 1.732 -0.5 0.0 0 CFG=2
M  V30 14 C 6.5621 2.5388 0.0 0
M  V30 15 C 7.8493 1.3798 0.0 0
M  V30 16 C 5.5621 2.5388 0.0 0
M  V30 17 C 4.3021 1.2787 0.0 0
M  V30 18 C 0.866 0.0 0.0 0
M  V30 19 C 1.732 -1.5 0.0 0
M  V30 20 C 7.2313 3.2819 0.0 0
M  V30 21 C 8.5184 2.123 0.0 0
M  V30 22 C 4.9743 3.3478 0.0 0
M  V30 23 O 0.866 1.0 0.0 0
M  V30 24 O 0.0 -0.5 0.0 0
M  V30 25 C 8.2094 3.074 0.0 0
M  V30 26 C 8.8785 3.8172 0.0 0
M  V30 27 O 9.8567 3.6093 0.0 0
M  V30 28 N 8.5695 4.7682 0.0 0
M  V30 29 C 9.2387 5.5114 0.0 0 CFG=2
M  V30 30 C 10.2168 5.3035 0.0 0
M  V30 31 C 8.9296 6.4624 0.0 0
M  V30 32 C 10.5258 4.3524 0.0 0
M  V30 33 C 10.8859 6.0466 0.0 0
M  V30 34 C 11.504 4.1445 0.0 0
M  V30 35 C 11.8641 5.8387 0.0 0
M  V30 36 C 12.1731 4.8876 0.0 0
M  V30 37 C 13.1512 4.6797 0.0 0
M  V30 38 C 13.3592 5.6579 0.0 0
M  V30 39 C 14.1294 4.4718 0.0 0
M  V30 40 C 12.9433 3.7016 0.0 0
M  V30 END ATOM
M  V30 BEGIN BOND
M  V30 1 1 1 2
M  V30 2 2 2 3
M  V30 3 1 2 4
M  V30 4 1 3 5
M  V30 5 1 3 6
M  V30 6 2 4 7
M  V30 7 2 5 8
M  V30 8 1 6 9
M  V30 9 1 8 10
M  V30 10 1 9 11
M  V30 11 1 9 12
M  V30 12 1 10 13
M  V30 13 2 11 14
M  V30 14 1 11 15
M  V30 15 2 12 16
M  V30 16 1 12 17
M  V30 17 1 13 18
M  V30 18 1 13 19 CFG=1
M  V30 19 1 14 20
M  V30 20 2 15 21
M  V30 21 1 16 22
M  V30 22 2 18 23
M  V30 23 1 18 24
M  V30 24 2 20 25
M  V30 25 1 25 26
M  V30 26 2 26 27
M  V30 27 1 26 28
M  V30 28 1 28 29
M  V30 29 1 29 30
M  V30 30 1 29 31 CFG=1
M  V30 31 2 30 32
M  V30 32 1 30 33
M  V30 33 1 32 34
M  V30 34 2 33 35
M  V30 35 2 34 36
M  V30 36 1 36 37
M  V30 37 1 37 38
M  V30 38 1 37 39
M  V30 39 1 37 40
M  V30 40 1 7 8
M  V30 41 1 14 16
M  V30 42 1 21 25
M  V30 43 1 35 36
M  V30 END BOND
M  V30 BEGIN COLLECTION
M  V30 MDLV30/STEABS ATOMS=(2 13 29)
M  V30 END COLLECTION
M  V30 END CTAB
M  END
>  <Molecule ChEMBL ID>
CHEMBL3678158

>  <Smiles>
Cc1c(C)n(Cc2cc(O[C@@H](C)C(=O)O)ccc2F)c2ccc(C(=O)N[C@@H](C)c3ccc(C(C)(C)C)cc3)cc12

>  <IC50_nM>
10

>  <Assay Description>
Lanthascreen Competitive Binding Assay: The assay was performed according to manufacturer protocol. A mixture of 5 nM GST-PPARG-LBD, 5 nM Tb-GST-antibody, 5 nM Fluormone Pan- PPAR Green, and serial dilutions of the experimental compound, beginning at 10 ׬� downwards, was added to wells of black 384-well low- volume plates (Greiner) to a total volume of 18 xL. All dilutions were made in TR-FRET assay buffer C. DMSO at 2% final concentration was used as a no-ligand control. Experiment was performed in triplicate, and incubated for 2 hours in the dark prior to assay read in Perkin Elmer ViewLux ultra HTS microplate reader. FRET signal was measured by excitation at 340 nm and emission at 520 nm for fluorescein and 490 nm for terbium.

$$$$
CHEMBL121
Actelion Java MolfileCreator 2.0

  0  0  0  0  0  0              0 V3000
M  V30 BEGIN CTAB
M  V30 COUNTS 25 27 0 0 0
M  V30 BEGIN ATOM
M  V30 1 S 7.8987 0.0054 0.0 0
M  V30 2 C 8.8769 -0.2024 0.0 0
M  V30 3 C 7.7942 0.9999 0.0 0 CFG=2
M  V30 4 O 9.2836 -1.1159 0.0 0
M  V30 5 N 9.3769 0.6635 0.0 0
M  V30 6 C 8.7077 1.4067 0.0 0
M  V30 7 C 6.9282 1.4999 0.0 0
M  V30 8 O 8.9156 2.3848 0.0 0
M  V30 9 C 6.0621 0.9999 0.0 0
M  V30 10 C 5.1961 1.4999 0.0 0
M  V30 11 C 6.0621 0.0 0.0 0
M  V30 12 C 4.3301 0.9999 0.0 0
M  V30 13 C 5.1961 -0.5 0.0 0
M  V30 14 C 4.3301 0.0 0.0 0
M  V30 15 O 3.4641 -0.5 0.0 0
M  V30 16 C 2.598 0.0 0.0 0
M  V30 17 C 1.732 -0.5 0.0 0
M  V30 18 N 0.866 0.0 0.0 0
M  V30 19 C 0.866 1.0 0.0 0
M  V30 20 C 0.0 -0.5 0.0 0
M  V30 21 N 1.732 1.4999 0.0 0
M  V30 22 C 0.0 1.4999 0.0 0
M  V30 23 C 1.732 2.5 0.0 0
M  V30 24 C 0.0 2.5 0.0 0
M  V30 25 C 0.866 3.0 0.0 0
M  V30 END ATOM
M  V30 BEGIN BOND
M  V30 1 1 1 2
M  V30 2 1 1 3
M  V30 3 2 2 4
M  V30 4 1 2 5
M  V30 5 1 3 6
M  V30 6 1 3 7 CFG=1
M  V30 7 2 6 8
M  V30 8 1 7 9
M  V30 9 2 9 10
M  V30 10 1 9 11
M  V30 11 1 10 12
M  V30 12 2 11 13
M  V30 13 2 12 14
M  V30 14 1 14 15
M  V30 15 1 15 16
M  V30 16 1 16 17
M  V30 17 1 17 18
M  V30 18 1 18 19
M  V30 19 1 18 20
M  V30 20 2 19 21
M  V30 21 1 19 22
M  V30 22 1 21 23
M  V30 23 2 22 24
M  V30 24 2 23 25
M  V30 25 1 5 6
M  V30 26 1 13 14
M  V30 27 1 24 25
M  V30 END BOND
M  V30 BEGIN COLLECTION
M  V30 MDLV30/STERAC1 ATOMS=(1 3)
M  V30 END COLLECTION
M  V30 END CTAB
M  END
>  <Molecule ChEMBL ID>
CHEMBL121

>  <Smiles>
CN(CCOc1ccc(CC2SC(=O)NC2=O)cc1)c1ccccn1

>  <IC50_nM>
10

>  <Assay Description>
Displacement of [3H]rosiglitazone from human recombinant PPAR-gamma receptor expressed in Escherichia coli measured after 120 mins by scintillation counting method

$$$$
CHEMBL77502
Actelion Java MolfileCreator 2.0

  0  0  0  0  0  0              0 V3000
M  V30 BEGIN CTAB
M  V30 COUNTS 33 36 0 0 0
M  V30 BEGIN ATOM
M  V30 1 S 5.9316 -2.8238 0.0 0
M  V30 2 C 4.9535 -2.6159 0.0 0
M  V30 3 C 6.0361 -3.8184 0.0 0
M  V30 4 C 4.5467 -1.7024 0.0 0
M  V30 5 C 4.4535 -3.482 0.0 0
M  V30 6 C 5.1226 -4.2251 0.0 0
M  V30 7 O 5.0467 -0.8364 0.0 0
M  V30 8 N 3.5686 -1.4945 0.0 0
M  V30 9 C 4.3776 -0.0932 0.0 0
M  V30 10 C 3.4641 -0.5 0.0 0
M  V30 11 C 4.5855 0.8848 0.0 0
M  V30 12 C 2.598 0.0 0.0 0
M  V30 13 C 1.732 -0.5 0.0 0
M  V30 14 O 0.866 0.0 0.0 0
M  V30 15 C 0.0 -0.5 0.0 0
M  V30 16 C -0.866 0.0 0.0 0
M  V30 17 C 0.0 -1.4999 0.0 0
M  V30 18 C -1.732 -0.4999 0.0 0
M  V30 19 C -0.866 -1.9999 0.0 0
M  V30 20 C -1.732 -1.4999 0.0 0
M  V30 21 C -2.598 -1.9999 0.0 0
M  V30 22 C -2.598 -2.9999 0.0 0 CFG=2
M  V30 23 O -1.732 -3.4999 0.0 0
M  V30 24 C -3.4641 -3.4999 0.0 0
M  V30 25 C -1.732 -2.4999 0.0 0
M  V30 26 C -1.732 -4.4999 0.0 0
M  V30 27 O -4.3301 -2.9999 0.0 0
M  V30 28 O -3.4641 -4.4999 0.0 0
M  V30 29 C -2.598 -4.9999 0.0 0
M  V30 30 C -0.866 -5.0 0.0 0
M  V30 31 C -2.598 -5.9999 0.0 0
M  V30 32 C -0.866 -6.0 0.0 0
M  V30 33 C -1.732 -6.4999 0.0 0
M  V30 END ATOM
M  V30 BEGIN BOND
M  V30 1 1 1 2
M  V30 2 1 1 3
M  V30 3 1 2 4
M  V30 4 2 2 5
M  V30 5 2 3 6
M  V30 6 1 4 7
M  V30 7 2 4 8
M  V30 8 1 7 9
M  V30 9 1 8 10
M  V30 10 1 9 11
M  V30 11 1 10 12
M  V30 12 1 12 13
M  V30 13 1 13 14
M  V30 14 1 14 15
M  V30 15 2 15 16
M  V30 16 1 15 17
M  V30 17 1 16 18
M  V30 18 2 17 19
M  V30 19 2 18 20
M  V30 20 1 20 21
M  V30 21 1 21 22
M  V30 22 1 22 23
M  V30 23 1 22 24
M  V30 24 1 22 25 CFG=1
M  V30 25 1 23 26
M  V30 26 2 24 27
M  V30 27 1 24 28
M  V30 28 2 26 29
M  V30 29 1 26 30
M  V30 30 1 29 31
M  V30 31 2 30 32
M  V30 32 2 31 33
M  V30 33 1 5 6
M  V30 34 2 9 10
M  V30 35 1 19 20
M  V30 36 1 32 33
M  V30 END BOND
M  V30 BEGIN COLLECTION
M  V30 MDLV30/STEABS ATOMS=(1 22)
M  V30 END COLLECTION
M  V30 END CTAB
M  END
>  <Molecule ChEMBL ID>
CHEMBL77502

>  <Smiles>
Cc1oc(-c2cccs2)nc1CCOc1ccc(C[C@](C)(Oc2ccccc2)C(=O)O)cc1

>  <IC50_nM>
10

>  <Assay Description>
Agonist activity at PPARgamma

$$$$
CHEMBL3699355
Actelion Java MolfileCreator 2.0

  0  0  0  0  0  0              0 V3000
M  V30 BEGIN CTAB
M  V30 COUNTS 46 50 0 0 0
M  V30 BEGIN ATOM
M  V30 1 F 3.3301 1.0 0.0 0
M  V30 2 C 4.3301 0.9999 0.0 0
M  V30 3 F 4.3301 1.9999 0.0 0
M  V30 4 F 5.3301 0.9999 0.0 0
M  V30 5 C 4.3301 0.0 0.0 0
M  V30 6 C 3.4641 -0.5 0.0 0
M  V30 7 C 5.1961 -0.5 0.0 0
M  V30 8 C 3.4641 -1.5 0.0 0
M  V30 9 C 2.598 0.0 0.0 0 CFG=2
M  V30 10 C 5.1961 -1.5 0.0 0
M  V30 11 C 4.3301 -2.0 0.0 0
M  V30 12 N 1.732 -0.5 0.0 0
M  V30 13 C 2.598 1.0 0.0 0
M  V30 14 C 6.0621 -2.0 0.0 0
M  V30 15 C 0.866 0.0 0.0 0
M  V30 16 F 6.5621 -1.1339 0.0 0
M  V30 17 F 6.9282 -2.5 0.0 0
M  V30 18 F 5.5621 -2.866 0.0 0
M  V30 19 O 0.866 1.0 0.0 0
M  V30 20 C 0.0 -0.5 0.0 0
M  V30 21 C 0.0 -1.4999 0.0 0
M  V30 22 C -0.866 0.0 0.0 0
M  V30 23 C -0.866 -1.9999 0.0 0
M  V30 24 C -1.732 -0.4999 0.0 0
M  V30 25 C -1.732 -1.4999 0.0 0
M  V30 26 C -1.0739 -2.9781 0.0 0
M  V30 27 N -2.4751 -2.1691 0.0 0
M  V30 28 C -2.0684 -3.0826 0.0 0
M  V30 29 C -0.4048 -3.7212 0.0 0
M  V30 30 C -3.4533 -1.9612 0.0 0
M  V30 31 C -2.5684 -3.9487 0.0 0
M  V30 32 C -4.1224 -2.7043 0.0 0
M  V30 33 C -5.1006 -2.4964 0.0 0
M  V30 34 C -3.8134 -3.6554 0.0 0
M  V30 35 C -5.7697 -3.2395 0.0 0
M  V30 36 C -4.4825 -4.3985 0.0 0
M  V30 37 C -5.4607 -4.1906 0.0 0
M  V30 38 C -6.1298 -4.9337 0.0 0
M  V30 39 C -7.108 -4.7258 0.0 0
M  V30 40 C -5.8208 -5.8848 0.0 0
M  V30 41 C -7.417 -3.7748 0.0 0
M  V30 42 C -7.7771 -5.469 0.0 0
M  V30 43 C -6.4899 -6.6279 0.0 0
M  V30 44 O -6.7478 -3.0316 0.0 0
M  V30 45 O -8.3951 -3.5669 0.0 0
M  V30 46 C -7.4681 -6.42 0.0 0
M  V30 END ATOM
M  V30 BEGIN BOND
M  V30 1 1 1 2
M  V30 2 1 2 3
M  V30 3 1 2 4
M  V30 4 1 2 5
M  V30 5 2 5 6
M  V30 6 1 5 7
M  V30 7 1 6 8
M  V30 8 1 6 9
M  V30 9 2 7 10
M  V30 10 2 8 11
M  V30 11 1 9 12
M  V30 12 1 9 13 CFG=3
M  V30 13 1 10 14
M  V30 14 1 12 15
M  V30 15 1 14 16
M  V30 16 1 14 17
M  V30 17 1 14 18
M  V30 18 2 15 19
M  V30 19 1 15 20
M  V30 20 2 20 21
M  V30 21 1 20 22
M  V30 22 1 21 23
M  V30 23 2 22 24
M  V30 24 2 23 25
M  V30 25 1 23 26
M  V30 26 1 25 27
M  V30 27 2 26 28
M  V30 28 1 26 29
M  V30 29 1 27 30
M  V30 30 1 28 31
M  V30 31 1 30 32
M  V30 32 2 32 33
M  V30 33 1 32 34
M  V30 34 1 33 35
M  V30 35 2 34 36
M  V30 36 2 35 37
M  V30 37 1 37 38
M  V30 38 2 38 39
M  V30 39 1 38 40
M  V30 40 1 39 41
M  V30 41 1 39 42
M  V30 42 2 40 43
M  V30 43 2 41 44
M  V30 44 1 41 45
M  V30 45 2 42 46
M  V30 46 1 10 11
M  V30 47 1 24 25
M  V30 48 1 27 28
M  V30 49 1 36 37
M  V30 50 1 43 46
M  V30 END BOND
M  V30 BEGIN COLLECTION
M  V30 MDLV30/STEABS ATOMS=(1 9)
M  V30 END COLLECTION
M  V30 END CTAB
M  END
>  <Molecule ChEMBL ID>
CHEMBL3699355

>  <Smiles>
Cc1c(C)n(Cc2ccc(-c3ccccc3C(=O)O)cc2)c2ccc(C(=O)N[C@H](C)c3ccc(C(F)(F)F)cc3C(F)(F)F)cc12

>  <IC50_nM>
11

>  <Assay Description>
Lanthascreen Competitive Binding Assay: The assay was performed according to manufacturer protocol. A mixture of nM GST-PPARG-LBD, 5 nM Tb-GST-antibody, 5 nM Fluormone Pan-PPAR Green, and serial dilutions of the experimental compound, beginning at 10 ׬M downwards, was added to wells of black 384-well low-volume plates (Greiner) to a total volume of 18 ׬L. All dilutions were made in TR-FRET assay buffer C. DMSO at 2% final concentration was used as a no-ligand control. Experiment was performed in triplicate, and incubated for 2 hours in the dark prior to assay read in Perkin Elmer ViewLux ultra HTS microplate reader. FRET signal was measured by excitation at 340 nm and emission at 520 nm for fluorescein and 490 nm for terbium. Fold change over DMSO was calculated using GraphPad Prism Software (La Jolla, Calif.) by calculating 520 nm/490 nm ratio. Graphs were plotted as fold change of FRET signal for compound treatment over DMSO-only control.

$$$$
CHEMBL3699372
Actelion Java MolfileCreator 2.0

  0  0  0  0  0  0              0 V3000
M  V30 BEGIN CTAB
M  V30 COUNTS 37 41 0 0 0
M  V30 BEGIN ATOM
M  V30 1 Cl 6.0621 -1.9999 0.0 0
M  V30 2 C 5.1961 -1.4999 0.0 0
M  V30 3 C 5.1961 -0.5 0.0 0
M  V30 4 C 4.3301 -1.9999 0.0 0
M  V30 5 C 4.3301 0.0 0.0 0
M  V30 6 C 3.4641 -1.5 0.0 0
M  V30 7 C 3.4641 -0.5 0.0 0
M  V30 8 C 4.3301 1.0 0.0 0
M  V30 9 C 2.598 0.0 0.0 0 CFG=1
M  V30 10 N 1.732 -0.5 0.0 0
M  V30 11 C 2.598 1.0 0.0 0
M  V30 12 C 0.866 0.0 0.0 0
M  V30 13 O 0.866 1.0 0.0 0
M  V30 14 C 0.0 -0.5 0.0 0
M  V30 15 C 0.0 -1.4999 0.0 0
M  V30 16 C -0.866 0.0 0.0 0
M  V30 17 C -0.866 -1.9999 0.0 0
M  V30 18 C -1.732 -0.4999 0.0 0
M  V30 19 C -1.732 -1.4999 0.0 0
M  V30 20 C -1.0739 -2.9781 0.0 0
M  V30 21 N -2.4751 -2.1691 0.0 0
M  V30 22 C -2.0684 -3.0826 0.0 0
M  V30 23 C -0.4048 -3.7212 0.0 0
M  V30 24 C -3.4533 -1.9612 0.0 0
M  V30 25 C -2.5684 -3.9487 0.0 0
M  V30 26 C -4.1224 -2.7043 0.0 0
M  V30 27 C -5.1006 -2.4964 0.0 0
M  V30 28 C -3.8134 -3.6554 0.0 0
M  V30 29 C -5.7697 -3.2395 0.0 0
M  V30 30 C -4.4825 -4.3985 0.0 0
M  V30 31 C -5.4607 -4.1906 0.0 0
M  V30 32 C -6.1298 -4.9337 0.0 0
M  V30 33 C -7.108 -4.7258 0.0 0
M  V30 34 C -5.8208 -5.8848 0.0 0
M  V30 35 C -7.7771 -5.469 0.0 0
M  V30 36 C -6.4899 -6.6279 0.0 0
M  V30 37 C -7.4681 -6.42 0.0 0
M  V30 END ATOM
M  V30 BEGIN BOND
M  V30 1 1 1 2
M  V30 2 2 2 3
M  V30 3 1 2 4
M  V30 4 1 3 5
M  V30 5 2 4 6
M  V30 6 2 5 7
M  V30 7 1 5 8
M  V30 8 1 7 9
M  V30 9 1 9 10
M  V30 10 1 9 11 CFG=1
M  V30 11 1 10 12
M  V30 12 2 12 13
M  V30 13 1 12 14
M  V30 14 2 14 15
M  V30 15 1 14 16
M  V30 16 1 15 17
M  V30 17 2 16 18
M  V30 18 2 17 19
M  V30 19 1 17 20
M  V30 20 1 19 21
M  V30 21 2 20 22
M  V30 22 1 20 23
M  V30 23 1 21 24
M  V30 24 1 22 25
M  V30 25 1 24 26
M  V30 26 2 26 27
M  V30 27 1 26 28
M  V30 28 1 27 29
M  V30 29 2 28 30
M  V30 30 2 29 31
M  V30 31 1 31 32
M  V30 32 2 32 33
M  V30 33 1 32 34
M  V30 34 1 33 35
M  V30 35 2 34 36
M  V30 36 2 35 37
M  V30 37 1 6 7
M  V30 38 1 18 19
M  V30 39 1 21 22
M  V30 40 1 30 31
M  V30 41 1 36 37
M  V30 END BOND
M  V30 BEGIN COLLECTION
M  V30 MDLV30/STEABS ATOMS=(1 9)
M  V30 END COLLECTION
M  V30 END CTAB
M  END
>  <Molecule ChEMBL ID>
CHEMBL3699372

>  <Smiles>
Cc1cc(Cl)ccc1[C@H](C)NC(=O)c1ccc2c(c1)c(C)c(C)n2Cc1ccc(-c2ccccc2)cc1

>  <IC50_nM>
11

>  <Assay Description>
Lanthascreen Competitive Binding Assay: The assay was performed according to manufacturer protocol. A mixture of nM GST-PPARG-LBD, 5 nM Tb-GST-antibody, 5 nM Fluormone Pan-PPAR Green, and serial dilutions of the experimental compound, beginning at 10 ׬M downwards, was added to wells of black 384-well low-volume plates (Greiner) to a total volume of 18 ׬L. All dilutions were made in TR-FRET assay buffer C. DMSO at 2% final concentration was used as a no-ligand control. Experiment was performed in triplicate, and incubated for 2 hours in the dark prior to assay read in Perkin Elmer ViewLux ultra HTS microplate reader. FRET signal was measured by excitation at 340 nm and emission at 520 nm for fluorescein and 490 nm for terbium. Fold change over DMSO was calculated using GraphPad Prism Software (La Jolla, Calif.) by calculating 520 nm/490 nm ratio. Graphs were plotted as fold change of FRET signal for compound treatment over DMSO-only control.

$$$$
CHEMBL3699419
Actelion Java MolfileCreator 2.0

  0  0  0  0  0  0              0 V3000
M  V30 BEGIN CTAB
M  V30 COUNTS 42 46 0 0 0
M  V30 BEGIN ATOM
M  V30 1 S 6.0621 -1.9999 0.0 0
M  V30 2 O 5.5621 -2.866 0.0 0
M  V30 3 O 6.5621 -1.1339 0.0 0
M  V30 4 C 5.1961 -1.4999 0.0 0
M  V30 5 C 6.9282 -2.5 0.0 0
M  V30 6 C 5.1961 -0.5 0.0 0
M  V30 7 C 4.3301 -1.9999 0.0 0
M  V30 8 C 4.3301 0.0 0.0 0
M  V30 9 C 3.4641 -1.5 0.0 0
M  V30 10 C 3.4641 -0.5 0.0 0
M  V30 11 C 2.598 0.0 0.0 0 CFG=2
M  V30 12 N 1.732 -0.5 0.0 0
M  V30 13 C 2.598 1.0 0.0 0
M  V30 14 C 0.866 0.0 0.0 0
M  V30 15 O 0.866 1.0 0.0 0
M  V30 16 C 0.0 -0.5 0.0 0
M  V30 17 C 0.0 -1.4999 0.0 0
M  V30 18 C -0.866 0.0 0.0 0
M  V30 19 C -0.866 -1.9999 0.0 0
M  V30 20 C -1.732 -0.4999 0.0 0
M  V30 21 C -1.732 -1.4999 0.0 0
M  V30 22 C -1.0739 -2.9781 0.0 0
M  V30 23 N -2.4751 -2.1691 0.0 0
M  V30 24 C -2.0684 -3.0826 0.0 0
M  V30 25 C -0.4048 -3.7212 0.0 0
M  V30 26 C -3.4533 -1.9612 0.0 0
M  V30 27 C -2.5684 -3.9487 0.0 0
M  V30 28 C -4.1224 -2.7043 0.0 0
M  V30 29 C -5.1006 -2.4964 0.0 0
M  V30 30 C -3.8134 -3.6554 0.0 0
M  V30 31 C -5.7697 -3.2395 0.0 0
M  V30 32 C -4.4825 -4.3985 0.0 0
M  V30 33 C -5.4607 -4.1906 0.0 0
M  V30 34 C -6.1298 -4.9337 0.0 0
M  V30 35 C -7.108 -4.7258 0.0 0
M  V30 36 C -5.8208 -5.8848 0.0 0
M  V30 37 C -7.417 -3.7748 0.0 0
M  V30 38 C -7.7771 -5.469 0.0 0
M  V30 39 C -6.4899 -6.6279 0.0 0
M  V30 40 O -6.7478 -3.0316 0.0 0
M  V30 41 O -8.3951 -3.5669 0.0 0
M  V30 42 C -7.4681 -6.42 0.0 0
M  V30 END ATOM
M  V30 BEGIN BOND
M  V30 1 2 1 2
M  V30 2 2 1 3
M  V30 3 1 1 4
M  V30 4 1 1 5
M  V30 5 2 4 6
M  V30 6 1 4 7
M  V30 7 1 6 8
M  V30 8 2 7 9
M  V30 9 2 8 10
M  V30 10 1 10 11
M  V30 11 1 11 12
M  V30 12 1 11 13 CFG=3
M  V30 13 1 12 14
M  V30 14 2 14 15
M  V30 15 1 14 16
M  V30 16 2 16 17
M  V30 17 1 16 18
M  V30 18 1 17 19
M  V30 19 2 18 20
M  V30 20 2 19 21
M  V30 21 1 19 22
M  V30 22 1 21 23
M  V30 23 2 22 24
M  V30 24 1 22 25
M  V30 25 1 23 26
M  V30 26 1 24 27
M  V30 27 1 26 28
M  V30 28 2 28 29
M  V30 29 1 28 30
M  V30 30 1 29 31
M  V30 31 2 30 32
M  V30 32 2 31 33
M  V30 33 1 33 34
M  V30 34 2 34 35
M  V30 35 1 34 36
M  V30 36 1 35 37
M  V30 37 1 35 38
M  V30 38 2 36 39
M  V30 39 2 37 40
M  V30 40 1 37 41
M  V30 41 2 38 42
M  V30 42 1 9 10
M  V30 43 1 20 21
M  V30 44 1 23 24
M  V30 45 1 32 33
M  V30 46 1 39 42
M  V30 END BOND
M  V30 BEGIN COLLECTION
M  V30 MDLV30/STEABS ATOMS=(1 11)
M  V30 END COLLECTION
M  V30 END CTAB
M  END
>  <Molecule ChEMBL ID>
CHEMBL3699419

>  <Smiles>
Cc1c(C)n(Cc2ccc(-c3ccccc3C(=O)O)cc2)c2ccc(C(=O)N[C@H](C)c3ccc(S(C)(=O)=O)cc3)cc12

>  <IC50_nM>
11

>  <Assay Description>
Lanthascreen Competitive Binding Assay: The assay was performed according to manufacturer protocol. A mixture of nM GST-PPARG-LBD, 5 nM Tb-GST-antibody, 5 nM Fluormone Pan-PPAR Green, and serial dilutions of the experimental compound, beginning at 10 ׬M downwards, was added to wells of black 384-well low-volume plates (Greiner) to a total volume of 18 ׬L. All dilutions were made in TR-FRET assay buffer C. DMSO at 2% final concentration was used as a no-ligand control. Experiment was performed in triplicate, and incubated for 2 hours in the dark prior to assay read in Perkin Elmer ViewLux ultra HTS microplate reader. FRET signal was measured by excitation at 340 nm and emission at 520 nm for fluorescein and 490 nm for terbium. Fold change over DMSO was calculated using GraphPad Prism Software (La Jolla, Calif.) by calculating 520 nm/490 nm ratio. Graphs were plotted as fold change of FRET signal for compound treatment over DMSO-only control.

$$$$
CHEMBL461571
Actelion Java MolfileCreator 2.0

  0  0  0  0  0  0              0 V3000
M  V30 BEGIN CTAB
M  V30 COUNTS 37 40 0 0 0
M  V30 BEGIN ATOM
M  V30 1 Cl 6.0664 -5.852 0.0 0
M  V30 2 C 6.6542 -5.043 0.0 0
M  V30 3 C 7.6487 -5.1475 0.0 0
M  V30 4 C 6.2475 -4.1294 0.0 0
M  V30 5 C 8.2365 -4.3385 0.0 0
M  V30 6 C 6.8353 -3.3204 0.0 0
M  V30 7 C 7.8298 -3.4249 0.0 0
M  V30 8 C 8.4176 -2.6159 0.0 0
M  V30 9 O 9.4121 -2.7205 0.0 0
M  V30 10 C 8.0108 -1.7024 0.0 0
M  V30 11 C 8.5108 -0.8364 0.0 0
M  V30 12 C 7.0327 -1.4945 0.0 0
M  V30 13 C 7.8417 -0.0932 0.0 0
M  V30 14 C 9.489 -0.6284 0.0 0
M  V30 15 N 6.9282 -0.5 0.0 0
M  V30 16 C 6.2895 -2.1636 0.0 0
M  V30 17 C 8.1507 0.8577 0.0 0
M  V30 18 C 9.798 0.3225 0.0 0
M  V30 19 C 6.0621 0.0 0.0 0
M  V30 20 C 9.1289 1.0657 0.0 0
M  V30 21 C 5.1961 -0.5 0.0 0
M  V30 22 O 9.4379 2.0167 0.0 0
M  V30 23 C 4.3301 0.0 0.0 0
M  V30 24 C 5.1961 -1.4999 0.0 0
M  V30 25 C 8.7687 2.7599 0.0 0
M  V30 26 C 3.4641 -0.5 0.0 0
M  V30 27 C 4.3301 -1.9999 0.0 0
M  V30 28 F 8.0256 2.0907 0.0 0
M  V30 29 F 8.0996 3.503 0.0 0
M  V30 30 F 9.5119 3.429 0.0 0
M  V30 31 O 2.598 0.0 0.0 0
M  V30 32 C 3.4641 -1.4999 0.0 0
M  V30 33 C 1.732 -0.5 0.0 0 CFG=1
M  V30 34 C 0.866 0.0 0.0 0
M  V30 35 C 1.732 -1.5 0.0 0
M  V30 36 O 0.866 1.0 0.0 0
M  V30 37 O 0.0 -0.5 0.0 0
M  V30 END ATOM
M  V30 BEGIN BOND
M  V30 1 1 1 2
M  V30 2 2 2 3
M  V30 3 1 2 4
M  V30 4 1 3 5
M  V30 5 2 4 6
M  V30 6 2 5 7
M  V30 7 1 7 8
M  V30 8 2 8 9
M  V30 9 1 8 10
M  V30 10 1 10 11
M  V30 11 2 10 12
M  V30 12 2 11 13
M  V30 13 1 11 14
M  V30 14 1 12 15
M  V30 15 1 12 16
M  V30 16 1 13 17
M  V30 17 2 14 18
M  V30 18 1 15 19
M  V30 19 2 17 20
M  V30 20 1 19 21
M  V30 21 1 20 22
M  V30 22 2 21 23
M  V30 23 1 21 24
M  V30 24 1 22 25
M  V30 25 1 23 26
M  V30 26 2 24 27
M  V30 27 1 25 28
M  V30 28 1 25 29
M  V30 29 1 25 30
M  V30 30 1 26 31
M  V30 31 2 26 32
M  V30 32 1 31 33
M  V30 33 1 33 34
M  V30 34 1 33 35 CFG=3
M  V30 35 2 34 36
M  V30 36 1 34 37
M  V30 37 1 6 7
M  V30 38 1 13 15
M  V30 39 1 18 20
M  V30 40 1 27 32
M  V30 END BOND
M  V30 BEGIN COLLECTION
M  V30 MDLV30/STEABS ATOMS=(1 33)
M  V30 END COLLECTION
M  V30 END CTAB
M  END
>  <Molecule ChEMBL ID>
CHEMBL461571

>  <Smiles>
Cc1c(C(=O)c2ccc(Cl)cc2)c2ccc(OC(F)(F)F)cc2n1Cc1cccc(O[C@H](C)C(=O)O)c1

>  <IC50_nM>
11

>  <Assay Description>
Inhibition of human PPARgamma receptor by scintillation proximity assay

$$$$
CHEMBL3699367
Actelion Java MolfileCreator 2.0

  0  0  0  0  0  0              0 V3000
M  V30 BEGIN CTAB
M  V30 COUNTS 43 47 0 0 0
M  V30 BEGIN ATOM
M  V30 1 F 4.3301 0.9999 0.0 0
M  V30 2 C 4.3301 0.0 0.0 0
M  V30 3 C 3.4641 -0.5 0.0 0
M  V30 4 C 5.1961 -0.5 0.0 0
M  V30 5 C 3.4641 -1.5 0.0 0
M  V30 6 C 2.598 0.0 0.0 0 CFG=1
M  V30 7 C 5.1961 -1.5 0.0 0
M  V30 8 C 4.3301 -2.0 0.0 0
M  V30 9 N 1.732 -0.5 0.0 0
M  V30 10 C 2.598 1.0 0.0 0
M  V30 11 C 4.3301 -3.0 0.0 0
M  V30 12 C 0.866 0.0 0.0 0
M  V30 13 F 5.3301 -3.0 0.0 0
M  V30 14 F 4.3301 -4.0 0.0 0
M  V30 15 F 3.3301 -3.0 0.0 0
M  V30 16 O 0.866 1.0 0.0 0
M  V30 17 C 0.0 -0.5 0.0 0
M  V30 18 C 0.0 -1.4999 0.0 0
M  V30 19 C -0.866 0.0 0.0 0
M  V30 20 C -0.866 -1.9999 0.0 0
M  V30 21 C -1.732 -0.4999 0.0 0
M  V30 22 C -1.732 -1.4999 0.0 0
M  V30 23 C -1.0739 -2.9781 0.0 0
M  V30 24 N -2.4751 -2.1691 0.0 0
M  V30 25 C -2.0684 -3.0826 0.0 0
M  V30 26 C -0.4048 -3.7212 0.0 0
M  V30 27 C -3.4533 -1.9612 0.0 0
M  V30 28 C -2.5684 -3.9487 0.0 0
M  V30 29 C -4.1224 -2.7043 0.0 0
M  V30 30 C -5.1006 -2.4964 0.0 0
M  V30 31 C -3.8134 -3.6554 0.0 0
M  V30 32 C -5.7697 -3.2395 0.0 0
M  V30 33 C -4.4825 -4.3985 0.0 0
M  V30 34 C -5.4607 -4.1906 0.0 0
M  V30 35 C -6.1298 -4.9337 0.0 0
M  V30 36 C -7.108 -4.7258 0.0 0
M  V30 37 C -5.8208 -5.8848 0.0 0
M  V30 38 C -7.417 -3.7748 0.0 0
M  V30 39 C -7.7771 -5.469 0.0 0
M  V30 40 C -6.4899 -6.6279 0.0 0
M  V30 41 O -6.7478 -3.0316 0.0 0
M  V30 42 O -8.3951 -3.5669 0.0 0
M  V30 43 C -7.4681 -6.42 0.0 0
M  V30 END ATOM
M  V30 BEGIN BOND
M  V30 1 1 1 2
M  V30 2 2 2 3
M  V30 3 1 2 4
M  V30 4 1 3 5
M  V30 5 1 3 6
M  V30 6 2 4 7
M  V30 7 2 5 8
M  V30 8 1 6 9
M  V30 9 1 6 10 CFG=1
M  V30 10 1 8 11
M  V30 11 1 9 12
M  V30 12 1 11 13
M  V30 13 1 11 14
M  V30 14 1 11 15
M  V30 15 2 12 16
M  V30 16 1 12 17
M  V30 17 2 17 18
M  V30 18 1 17 19
M  V30 19 1 18 20
M  V30 20 2 19 21
M  V30 21 2 20 22
M  V30 22 1 20 23
M  V30 23 1 22 24
M  V30 24 2 23 25
M  V30 25 1 23 26
M  V30 26 1 24 27
M  V30 27 1 25 28
M  V30 28 1 27 29
M  V30 29 2 29 30
M  V30 30 1 29 31
M  V30 31 1 30 32
M  V30 32 2 31 33
M  V30 33 2 32 34
M  V30 34 1 34 35
M  V30 35 2 35 36
M  V30 36 1 35 37
M  V30 37 1 36 38
M  V30 38 1 36 39
M  V30 39 2 37 40
M  V30 40 2 38 41
M  V30 41 1 38 42
M  V30 42 2 39 43
M  V30 43 1 7 8
M  V30 44 1 21 22
M  V30 45 1 24 25
M  V30 46 1 33 34
M  V30 47 1 40 43
M  V30 END BOND
M  V30 BEGIN COLLECTION
M  V30 MDLV30/STEABS ATOMS=(1 6)
M  V30 END COLLECTION
M  V30 END CTAB
M  END
>  <Molecule ChEMBL ID>
CHEMBL3699367

>  <Smiles>
Cc1c(C)n(Cc2ccc(-c3ccccc3C(=O)O)cc2)c2ccc(C(=O)N[C@@H](C)c3cc(C(F)(F)F)ccc3F)cc12

>  <IC50_nM>
11

>  <Assay Description>
Lanthascreen Competitive Binding Assay: The assay was performed according to manufacturer protocol. A mixture of nM GST-PPARG-LBD, 5 nM Tb-GST-antibody, 5 nM Fluormone Pan-PPAR Green, and serial dilutions of the experimental compound, beginning at 10 ׬M downwards, was added to wells of black 384-well low-volume plates (Greiner) to a total volume of 18 ׬L. All dilutions were made in TR-FRET assay buffer C. DMSO at 2% final concentration was used as a no-ligand control. Experiment was performed in triplicate, and incubated for 2 hours in the dark prior to assay read in Perkin Elmer ViewLux ultra HTS microplate reader. FRET signal was measured by excitation at 340 nm and emission at 520 nm for fluorescein and 490 nm for terbium. Fold change over DMSO was calculated using GraphPad Prism Software (La Jolla, Calif.) by calculating 520 nm/490 nm ratio. Graphs were plotted as fold change of FRET signal for compound treatment over DMSO-only control.

$$$$
CHEMBL198269
Actelion Java MolfileCreator 2.0

  0  0  0  0  0  0              0 V3000
M  V30 BEGIN CTAB
M  V30 COUNTS 39 43 0 0 0
M  V30 BEGIN ATOM
M  V30 1 F 3.8301 0.866 0.0 0
M  V30 2 C 4.3301 0.0 0.0 0
M  V30 3 F 5.1961 0.4999 0.0 0
M  V30 4 F 4.8301 -0.866 0.0 0
M  V30 5 C 3.4641 -0.5 0.0 0
M  V30 6 C 2.598 0.0 0.0 0
M  V30 7 C 3.4641 -1.4999 0.0 0
M  V30 8 C 1.732 -0.5 0.0 0
M  V30 9 C 2.598 -2.0 0.0 0
M  V30 10 O 0.866 0.0 0.0 0
M  V30 11 C 1.732 -1.5 0.0 0
M  V30 12 C 0.0 -0.5 0.0 0
M  V30 13 C -0.9135 -0.0932 0.0 0
M  V30 14 C -0.1045 -1.4945 0.0 0
M  V30 15 N -1.5826 -0.8364 0.0 0
M  V30 16 C -1.1214 0.8848 0.0 0
M  V30 17 C -1.0826 -1.7024 0.0 0
M  V30 18 C 0.5646 -2.2376 0.0 0
M  V30 19 C -2.5771 -0.7318 0.0 0
M  V30 20 O -0.3783 1.554 0.0 0
M  V30 21 O -2.0725 1.1939 0.0 0
M  V30 22 C -1.3916 -2.6534 0.0 0
M  V30 23 C 0.2555 -3.1887 0.0 0
M  V30 24 C -2.9839 0.1816 0.0 0
M  V30 25 C -3.1649 -1.5408 0.0 0
M  V30 26 C -0.7225 -3.3966 0.0 0
M  V30 27 O 0.9247 -3.9318 0.0 0
M  V30 28 C -3.9784 0.2861 0.0 0
M  V30 29 C -4.1595 -1.4363 0.0 0
M  V30 30 C 1.9028 -3.7239 0.0 0
M  V30 31 C -4.5662 -0.5228 0.0 0
M  V30 32 N 2.646 -4.393 0.0 0
M  V30 33 C 2.3095 -2.8104 0.0 0
M  V30 34 C -5.5607 -0.4182 0.0 0
M  V30 35 C 3.512 -3.893 0.0 0
M  V30 36 C 3.3041 -2.9149 0.0 0
M  V30 37 C -5.6652 -1.4128 0.0 0
M  V30 38 C -6.5552 -0.3137 0.0 0
M  V30 39 C -5.4562 0.5762 0.0 0
M  V30 END ATOM
M  V30 BEGIN BOND
M  V30 1 1 1 2
M  V30 2 1 2 3
M  V30 3 1 2 4
M  V30 4 1 2 5
M  V30 5 2 5 6
M  V30 6 1 5 7
M  V30 7 1 6 8
M  V30 8 2 7 9
M  V30 9 1 8 10
M  V30 10 2 8 11
M  V30 11 1 10 12
M  V30 12 2 12 13
M  V30 13 1 12 14
M  V30 14 1 13 15
M  V30 15 1 13 16
M  V30 16 2 14 17
M  V30 17 1 14 18
M  V30 18 1 15 19
M  V30 19 2 16 20
M  V30 20 1 16 21
M  V30 21 1 17 22
M  V30 22 2 18 23
M  V30 23 2 19 24
M  V30 24 1 19 25
M  V30 25 2 22 26
M  V30 26 1 23 27
M  V30 27 1 24 28
M  V30 28 2 25 29
M  V30 29 1 27 30
M  V30 30 2 28 31
M  V30 31 1 30 32
M  V30 32 2 30 33
M  V30 33 1 31 34
M  V30 34 1 32 35
M  V30 35 1 33 36
M  V30 36 1 34 37
M  V30 37 1 34 38
M  V30 38 1 34 39
M  V30 39 1 9 11
M  V30 40 1 15 17
M  V30 41 1 23 26
M  V30 42 1 29 31
M  V30 43 2 35 36
M  V30 END BOND
M  V30 END CTAB
M  END
>  <Molecule ChEMBL ID>
CHEMBL198269

>  <Smiles>
CC(C)(C)c1ccc(-n2c(C(=O)O)c(Oc3cccc(C(F)(F)F)c3)c3cc(Oc4ccc[nH]4)ccc32)cc1

>  <IC50_nM>
11

>  <Assay Description>
Inhibitory concentration against human peroxisome proliferator activated receptor gamma in SPA assay

$$$$
CHEMBL376460
Actelion Java MolfileCreator 2.0

  0  0  0  0  0  0              0 V3000
M  V30 BEGIN CTAB
M  V30 COUNTS 36 39 0 0 0
M  V30 BEGIN ATOM
M  V30 1 O 4.3301 0.0 0.0 0
M  V30 2 C 3.4641 -0.5 0.0 0
M  V30 3 O 2.598 0.0 0.0 0
M  V30 4 N 3.4641 -1.5 0.0 0
M  V30 5 C 1.732 -0.5 0.0 0
M  V30 6 C 2.598 -2.0 0.0 0
M  V30 7 C 4.3301 -2.0 0.0 0
M  V30 8 C 0.866 0.0 0.0 0
M  V30 9 C 2.598 -3.0 0.0 0
M  V30 10 C 4.3301 -2.9999 0.0 0
M  V30 11 C 0.0 -0.5 0.0 0
M  V30 12 C 3.4641 -3.5 0.0 0
M  V30 13 C 1.732 -3.5 0.0 0
M  V30 14 C 3.4641 -4.5 0.0 0
M  V30 15 C 1.732 -4.4999 0.0 0
M  V30 16 C 0.866 -3.0 0.0 0
M  V30 17 O 4.3301 -5.0 0.0 0
M  V30 18 C 2.598 -5.0 0.0 0
M  V30 19 C 0.0 -3.4999 0.0 0
M  V30 20 C 5.1961 -4.5 0.0 0
M  V30 21 C -0.866 -2.9999 0.0 0
M  V30 22 C 6.0621 -5.0 0.0 0
M  V30 23 O -0.866 -1.9999 0.0 0
M  V30 24 O -1.732 -3.4999 0.0 0
M  V30 25 C 6.9282 -4.5 0.0 0
M  V30 26 N 7.8417 -4.9067 0.0 0
M  V30 27 C 7.0327 -3.5054 0.0 0
M  V30 28 C 8.5108 -4.1635 0.0 0
M  V30 29 O 8.0108 -3.2975 0.0 0
M  V30 30 C 6.2895 -2.8363 0.0 0
M  V30 31 C 9.5054 -4.2681 0.0 0
M  V30 32 C 9.9121 -5.1816 0.0 0
M  V30 33 C 10.0931 -3.4591 0.0 0
M  V30 34 C 10.9066 -5.2861 0.0 0
M  V30 35 C 11.0877 -3.5636 0.0 0
M  V30 36 C 11.4944 -4.4771 0.0 0
M  V30 END ATOM
M  V30 BEGIN BOND
M  V30 1 2 1 2
M  V30 2 1 2 3
M  V30 3 1 2 4
M  V30 4 1 3 5
M  V30 5 1 4 6
M  V30 6 1 4 7
M  V30 7 1 5 8
M  V30 8 1 6 9
M  V30 9 1 7 10
M  V30 10 1 8 11
M  V30 11 2 9 12
M  V30 12 1 9 13
M  V30 13 1 12 14
M  V30 14 2 13 15
M  V30 15 1 13 16
M  V30 16 1 14 17
M  V30 17 2 14 18
M  V30 18 1 16 19
M  V30 19 1 17 20
M  V30 20 1 19 21
M  V30 21 1 20 22
M  V30 22 2 21 23
M  V30 23 1 21 24
M  V30 24 1 22 25
M  V30 25 1 25 26
M  V30 26 2 25 27
M  V30 27 2 26 28
M  V30 28 1 27 29
M  V30 29 1 27 30
M  V30 30 1 28 31
M  V30 31 2 31 32
M  V30 32 1 31 33
M  V30 33 1 32 34
M  V30 34 2 33 35
M  V30 35 2 34 36
M  V30 36 1 10 12
M  V30 37 1 15 18
M  V30 38 1 28 29
M  V30 39 1 35 36
M  V30 END BOND
M  V30 END CTAB
M  END
>  <Molecule ChEMBL ID>
CHEMBL376460

>  <Smiles>
CCCOC(=O)N1CCc2c(OCCc3nc(-c4ccccc4)oc3C)ccc(CCC(=O)O)c2C1

>  <IC50_nM>
11

>  <Assay Description>
Displacement of tritium labeled ligand from human PPARgamma by SPA assay

$$$$
CHEMBL484330
Actelion Java MolfileCreator 2.0

  0  0  0  0  0  0              0 V3000
M  V30 BEGIN CTAB
M  V30 COUNTS 31 34 0 0 0
M  V30 BEGIN ATOM
M  V30 1 S 4.538 0.9781 0.0 0
M  V30 2 C 4.3301 0.0 0.0 0
M  V30 3 C 5.5325 1.0826 0.0 0
M  V30 4 C 3.4641 -0.5 0.0 0
M  V30 5 C 5.1961 -0.4999 0.0 0
M  V30 6 C 5.9392 0.1691 0.0 0
M  V30 7 O 2.598 0.0 0.0 0
M  V30 8 C 3.4641 -1.5 0.0 0
M  V30 9 C 5.1961 -1.4999 0.0 0
M  V30 10 C 1.732 -0.5 0.0 0
M  V30 11 C 4.3301 -1.9999 0.0 0
M  V30 12 C 6.0621 -1.9999 0.0 0
M  V30 13 C 0.866 0.0 0.0 0
M  V30 14 C 6.0621 -3.0 0.0 0 CFG=2
M  V30 15 C 0.0 -0.5 0.0 0
M  V30 16 O 5.1961 -3.4999 0.0 0
M  V30 17 C 6.9282 -3.5 0.0 0
M  V30 18 N -0.9135 -0.0932 0.0 0
M  V30 19 C -0.1045 -1.4945 0.0 0
M  V30 20 C 4.3301 -2.9999 0.0 0
M  V30 21 O 7.7942 -3.0 0.0 0
M  V30 22 O 6.9282 -4.4999 0.0 0
M  V30 23 C -1.5826 -0.8364 0.0 0
M  V30 24 O -1.0826 -1.7024 0.0 0
M  V30 25 C 0.6386 -2.1636 0.0 0
M  V30 26 C -2.5771 -0.7318 0.0 0
M  V30 27 C -2.9839 0.1816 0.0 0
M  V30 28 C -3.1649 -1.5408 0.0 0
M  V30 29 C -3.9784 0.2861 0.0 0
M  V30 30 C -4.1595 -1.4363 0.0 0
M  V30 31 C -4.5662 -0.5228 0.0 0
M  V30 END ATOM
M  V30 BEGIN BOND
M  V30 1 1 1 2
M  V30 2 1 1 3
M  V30 3 2 2 4
M  V30 4 1 2 5
M  V30 5 2 3 6
M  V30 6 1 4 7
M  V30 7 1 4 8
M  V30 8 2 5 9
M  V30 9 1 7 10
M  V30 10 2 8 11
M  V30 11 1 9 12
M  V30 12 1 10 13
M  V30 13 1 12 14
M  V30 14 1 13 15
M  V30 15 1 14 16 CFG=1
M  V30 16 1 14 17
M  V30 17 1 15 18
M  V30 18 2 15 19
M  V30 19 1 16 20
M  V30 20 2 17 21
M  V30 21 1 17 22
M  V30 22 2 18 23
M  V30 23 1 19 24
M  V30 24 1 19 25
M  V30 25 1 23 26
M  V30 26 2 26 27
M  V30 27 1 26 28
M  V30 28 1 27 29
M  V30 29 2 28 30
M  V30 30 2 29 31
M  V30 31 1 5 6
M  V30 32 1 9 11
M  V30 33 1 23 24
M  V30 34 1 30 31
M  V30 END BOND
M  V30 BEGIN COLLECTION
M  V30 MDLV30/STEABS ATOMS=(1 14)
M  V30 END COLLECTION
M  V30 END CTAB
M  END
>  <Molecule ChEMBL ID>
CHEMBL484330

>  <Smiles>
CO[C@@H](Cc1ccc(OCCc2nc(-c3ccccc3)oc2C)c2sccc12)C(=O)O

>  <IC50_nM>
11

>  <Assay Description>
Displacement of radio labeled 2(S)-(2-benzoyl-phenylamino)-3-{4-[1,1-ditritio-2-(5-methyl-2-phenyl-oxazol-4-yl)-ethoxy]-phenyl}-propionic acid from GST-fused human PPARgamma expressed in Escherichia coli BL21 cells by scintillation proximity assay

$$$$
CHEMBL3695890
Actelion Java MolfileCreator 2.0

  0  0  0  0  0  0              0 V3000
M  V30 BEGIN CTAB
M  V30 COUNTS 35 39 0 0 0
M  V30 BEGIN ATOM
M  V30 1 O 2.598 -0.75 0.0 0
M  V30 2 C 3.8971 0.0 0.0 0
M  V30 3 N 5.1961 -0.7499 0.0 0
M  V30 4 C 3.8971 1.5 0.0 0
M  V30 5 C 6.4951 0.0 0.0 0 CFG=1
M  V30 6 C 2.598 2.25 0.0 0
M  V30 7 C 5.1961 2.25 0.0 0
M  V30 8 C 7.7942 -0.7499 0.0 0
M  V30 9 C 6.4951 1.5 0.0 0
M  V30 10 C 2.598 3.75 0.0 0
M  V30 11 C 5.1961 3.75 0.0 0
M  V30 12 C 7.7942 -2.2499 0.0 0
M  V30 13 C 9.0932 0.0 0.0 0
M  V30 14 C 3.8971 4.5 0.0 0
M  V30 15 C 1.4833 4.7536 0.0 0
M  V30 16 C 9.0932 -2.9999 0.0 0
M  V30 17 C 10.3923 -0.7499 0.0 0
M  V30 18 N 3.5852 5.9672 0.0 0
M  V30 19 C 2.0934 6.124 0.0 0
M  V30 20 C 0.0161 4.4418 0.0 0
M  V30 21 N 10.3923 -2.2499 0.0 0
M  V30 22 C 4.5889 7.0819 0.0 0
M  V30 23 C 1.3434 7.423 0.0 0
M  V30 24 C 4.1254 8.5085 0.0 0
M  V30 25 C 5.1291 9.6232 0.0 0
M  V30 26 C 2.6581 8.8203 0.0 0
M  V30 27 C 4.6655 11.0498 0.0 0
M  V30 28 C 2.1946 10.2469 0.0 0
M  V30 29 C 3.1983 11.3616 0.0 0
M  V30 30 C 2.7348 12.7882 0.0 0
M  V30 31 C 3.7385 13.9029 0.0 0
M  V30 32 C 1.2676 13.1001 0.0 0
M  V30 33 C 3.275 15.3295 0.0 0
M  V30 34 C 0.804 14.5267 0.0 0
M  V30 35 C 1.8077 15.6414 0.0 0
M  V30 END ATOM
M  V30 BEGIN BOND
M  V30 1 2 1 2
M  V30 2 1 2 3
M  V30 3 1 2 4
M  V30 4 1 3 5
M  V30 5 2 4 6
M  V30 6 1 4 7
M  V30 7 1 5 8
M  V30 8 1 5 9 CFG=3
M  V30 9 1 6 10
M  V30 10 2 7 11
M  V30 11 2 8 12
M  V30 12 1 8 13
M  V30 13 2 10 14
M  V30 14 1 10 15
M  V30 15 1 12 16
M  V30 16 2 13 17
M  V30 17 1 14 18
M  V30 18 2 15 19
M  V30 19 1 15 20
M  V30 20 2 16 21
M  V30 21 1 18 22
M  V30 22 1 19 23
M  V30 23 1 22 24
M  V30 24 2 24 25
M  V30 25 1 24 26
M  V30 26 1 25 27
M  V30 27 2 26 28
M  V30 28 2 27 29
M  V30 29 1 29 30
M  V30 30 2 30 31
M  V30 31 1 30 32
M  V30 32 1 31 33
M  V30 33 2 32 34
M  V30 34 2 33 35
M  V30 35 1 11 14
M  V30 36 1 17 21
M  V30 37 1 18 19
M  V30 38 1 28 29
M  V30 39 1 34 35
M  V30 END BOND
M  V30 BEGIN COLLECTION
M  V30 MDLV30/STEABS ATOMS=(1 5)
M  V30 END COLLECTION
M  V30 END CTAB
M  END
>  <Molecule ChEMBL ID>
CHEMBL3695890

>  <Smiles>
Cc1c(C)n(Cc2ccc(-c3ccccc3)cc2)c2ccc(C(=O)N[C@H](C)c3ccncc3)cc12

>  <IC50_nM>
11

>  <Assay Description>
Lanthascreen Competitive Binding Assay: The assay was performed according to manufacturer protocol. A mixture of nM GST-PPARG-LBD, 5 nM Tb-GST-antibody, 5 nM Fluormone Pan-PPAR Green, and serial dilutions of the experimental compound, beginning at 10 ׬M downwards, was added to wells of black 384-well low-volume plates (Greiner) to a total volume of 18 ׬L. All dilutions were made in TR-FRET assay buffer C. DMSO at 2% final concentration was used as a no-ligand control. Experiment was performed in triplicate, and incubated for 2 hours in the dark prior to assay read in Perkin Elmer ViewLux ultra HTS microplate reader. FRET signal was measured by excitation at 340 nm and emission at 520 nm for fluorescein and 490 nm for terbium. Fold change over DMSO was calculated using GraphPad Prism Software (La Jolla, Calif.) by calculating 520 nm/490 nm ratio. Graphs were plotted as fold change of FRET signal for compound treatment over DMSO-only control.

$$$$
CHEMBL3699422
Actelion Java MolfileCreator 2.0

  0  0  0  0  0  0              0 V3000
M  V30 BEGIN CTAB
M  V30 COUNTS 39 43 0 0 0
M  V30 BEGIN ATOM
M  V30 1 O 11.8592 -3.5669 0.0 0
M  V30 2 C 10.8811 -3.7748 0.0 0
M  V30 3 O 10.212 -3.0316 0.0 0
M  V30 4 C 10.5721 -4.7258 0.0 0
M  V30 5 C 9.5939 -4.9337 0.0 0
M  V30 6 C 11.2412 -5.469 0.0 0
M  V30 7 C 8.9248 -4.1906 0.0 0
M  V30 8 C 9.2849 -5.8848 0.0 0
M  V30 9 C 10.9322 -6.42 0.0 0
M  V30 10 C 9.2338 -3.2395 0.0 0
M  V30 11 C 7.9466 -4.3985 0.0 0
M  V30 12 C 9.954 -6.6279 0.0 0
M  V30 13 C 8.5647 -2.4964 0.0 0
M  V30 14 C 7.2775 -3.6554 0.0 0
M  V30 15 C 7.5865 -2.7043 0.0 0
M  V30 16 C 6.9174 -1.9612 0.0 0
M  V30 17 N 5.9392 -2.1691 0.0 0
M  V30 18 C 5.1961 -1.4999 0.0 0
M  V30 19 C 5.5325 -3.0826 0.0 0
M  V30 20 C 4.3301 -1.9999 0.0 0
M  V30 21 C 5.1961 -0.4999 0.0 0
M  V30 22 C 4.538 -2.9781 0.0 0
M  V30 23 C 6.0325 -3.9487 0.0 0
M  V30 24 C 3.4641 -1.5 0.0 0
M  V30 25 C 4.3301 0.0 0.0 0
M  V30 26 C 3.8689 -3.7212 0.0 0
M  V30 27 C 3.4641 -0.5 0.0 0
M  V30 28 C 2.598 0.0 0.0 0
M  V30 29 O 2.598 1.0 0.0 0
M  V30 30 N 1.732 -0.5 0.0 0
M  V30 31 C 0.866 0.0 0.0 0 CFG=2
M  V30 32 C 0.866 1.0 0.0 0
M  V30 33 C 0.0 -0.5 0.0 0
M  V30 34 C 1.732 1.4999 0.0 0
M  V30 35 C 0.0 1.4999 0.0 0
M  V30 36 C 1.732 2.5 0.0 0
M  V30 37 C 0.0 2.5 0.0 0
M  V30 38 C 0.866 3.0 0.0 0
M  V30 39 C 2.598 3.0 0.0 0
M  V30 END ATOM
M  V30 BEGIN BOND
M  V30 1 2 1 2
M  V30 2 1 2 3
M  V30 3 1 2 4
M  V30 4 2 4 5
M  V30 5 1 4 6
M  V30 6 1 5 7
M  V30 7 1 5 8
M  V30 8 2 6 9
M  V30 9 2 7 10
M  V30 10 1 7 11
M  V30 11 2 8 12
M  V30 12 1 10 13
M  V30 13 2 11 14
M  V30 14 2 13 15
M  V30 15 1 15 16
M  V30 16 1 16 17
M  V30 17 1 17 18
M  V30 18 1 17 19
M  V30 19 2 18 20
M  V30 20 1 18 21
M  V30 21 2 19 22
M  V30 22 1 19 23
M  V30 23 1 20 24
M  V30 24 2 21 25
M  V30 25 1 22 26
M  V30 26 2 24 27
M  V30 27 1 27 28
M  V30 28 2 28 29
M  V30 29 1 28 30
M  V30 30 1 30 31
M  V30 31 1 31 32
M  V30 32 1 31 33 CFG=1
M  V30 33 2 32 34
M  V30 34 1 32 35
M  V30 35 1 34 36
M  V30 36 2 35 37
M  V30 37 2 36 38
M  V30 38 1 36 39
M  V30 39 1 9 12
M  V30 40 1 14 15
M  V30 41 1 20 22
M  V30 42 1 25 27
M  V30 43 1 37 38
M  V30 END BOND
M  V30 BEGIN COLLECTION
M  V30 MDLV30/STEABS ATOMS=(1 31)
M  V30 END COLLECTION
M  V30 END CTAB
M  END
>  <Molecule ChEMBL ID>
CHEMBL3699422

>  <Smiles>
Cc1cccc([C@H](C)NC(=O)c2ccc3c(c2)c(C)c(C)n3Cc2ccc(-c3ccccc3C(=O)O)cc2)c1

>  <IC50_nM>
11

>  <Assay Description>
Lanthascreen Competitive Binding Assay: The assay was performed according to manufacturer protocol. A mixture of nM GST-PPARG-LBD, 5 nM Tb-GST-antibody, 5 nM Fluormone Pan-PPAR Green, and serial dilutions of the experimental compound, beginning at 10 ׬M downwards, was added to wells of black 384-well low-volume plates (Greiner) to a total volume of 18 ׬L. All dilutions were made in TR-FRET assay buffer C. DMSO at 2% final concentration was used as a no-ligand control. Experiment was performed in triplicate, and incubated for 2 hours in the dark prior to assay read in Perkin Elmer ViewLux ultra HTS microplate reader. FRET signal was measured by excitation at 340 nm and emission at 520 nm for fluorescein and 490 nm for terbium. Fold change over DMSO was calculated using GraphPad Prism Software (La Jolla, Calif.) by calculating 520 nm/490 nm ratio. Graphs were plotted as fold change of FRET signal for compound treatment over DMSO-only control.

$$$$
CHEMBL3695825
Actelion Java MolfileCreator 2.0

  0  0  0  0  0  0              0 V3000
M  V30 BEGIN CTAB
M  V30 COUNTS 41 46 0 0 0
M  V30 BEGIN ATOM
M  V30 1 O 11.8592 -3.5669 0.0 0
M  V30 2 C 10.8811 -3.7748 0.0 0
M  V30 3 O 10.212 -3.0316 0.0 0
M  V30 4 C 10.5721 -4.7258 0.0 0
M  V30 5 C 9.5939 -4.9337 0.0 0
M  V30 6 C 11.2412 -5.469 0.0 0
M  V30 7 C 8.9248 -4.1906 0.0 0
M  V30 8 C 9.2849 -5.8848 0.0 0
M  V30 9 C 10.9322 -6.42 0.0 0
M  V30 10 C 9.2338 -3.2395 0.0 0
M  V30 11 C 7.9466 -4.3985 0.0 0
M  V30 12 C 9.954 -6.6279 0.0 0
M  V30 13 C 8.5647 -2.4964 0.0 0
M  V30 14 C 7.2775 -3.6554 0.0 0
M  V30 15 C 7.5865 -2.7043 0.0 0
M  V30 16 C 6.9174 -1.9612 0.0 0
M  V30 17 N 5.9392 -2.1691 0.0 0
M  V30 18 C 5.1961 -1.4999 0.0 0
M  V30 19 C 5.5325 -3.0826 0.0 0
M  V30 20 C 4.3301 -1.9999 0.0 0
M  V30 21 C 5.1961 -0.4999 0.0 0
M  V30 22 C 4.538 -2.9781 0.0 0
M  V30 23 C 6.0325 -3.9487 0.0 0
M  V30 24 C 3.4641 -1.5 0.0 0
M  V30 25 C 4.3301 0.0 0.0 0
M  V30 26 C 3.8689 -3.7212 0.0 0
M  V30 27 C 3.4641 -0.5 0.0 0
M  V30 28 C 2.598 0.0 0.0 0
M  V30 29 O 2.598 1.0 0.0 0
M  V30 30 N 1.732 -0.5 0.0 0
M  V30 31 C 0.866 0.0 0.0 0
M  V30 32 C 0.0 -0.5 0.0 0 CFG=2
M  V30 33 O -0.866 0.0 0.0 0
M  V30 34 C 0.0 -1.4999 0.0 0
M  V30 35 C -1.732 -0.4999 0.0 0
M  V30 36 O -0.866 -1.9999 0.0 0
M  V30 37 C -1.732 -1.4999 0.0 0
M  V30 38 C -2.598 0.0 0.0 0
M  V30 39 C -2.598 -1.9999 0.0 0
M  V30 40 C -3.4641 -0.4999 0.0 0
M  V30 41 C -3.4641 -1.4999 0.0 0
M  V30 END ATOM
M  V30 BEGIN BOND
M  V30 1 2 1 2
M  V30 2 1 2 3
M  V30 3 1 2 4
M  V30 4 2 4 5
M  V30 5 1 4 6
M  V30 6 1 5 7
M  V30 7 1 5 8
M  V30 8 2 6 9
M  V30 9 2 7 10
M  V30 10 1 7 11
M  V30 11 2 8 12
M  V30 12 1 10 13
M  V30 13 2 11 14
M  V30 14 2 13 15
M  V30 15 1 15 16
M  V30 16 1 16 17
M  V30 17 1 17 18
M  V30 18 1 17 19
M  V30 19 2 18 20
M  V30 20 1 18 21
M  V30 21 2 19 22
M  V30 22 1 19 23
M  V30 23 1 20 24
M  V30 24 2 21 25
M  V30 25 1 22 26
M  V30 26 2 24 27
M  V30 27 1 27 28
M  V30 28 2 28 29
M  V30 29 1 28 30
M  V30 30 1 30 31
M  V30 31 1 32 31 CFG=1
M  V30 32 1 32 33
M  V30 33 1 32 34
M  V30 34 1 33 35
M  V30 35 1 34 36
M  V30 36 2 35 37
M  V30 37 1 35 38
M  V30 38 1 37 39
M  V30 39 2 38 40
M  V30 40 2 39 41
M  V30 41 1 9 12
M  V30 42 1 14 15
M  V30 43 1 20 22
M  V30 44 1 25 27
M  V30 45 1 36 37
M  V30 46 1 40 41
M  V30 END BOND
M  V30 BEGIN COLLECTION
M  V30 MDLV30/STERAC1 ATOMS=(1 32)
M  V30 END COLLECTION
M  V30 END CTAB
M  END
>  <Molecule ChEMBL ID>
CHEMBL3695825

>  <Smiles>
Cc1c(C)n(Cc2ccc(-c3ccccc3C(=O)O)cc2)c2ccc(C(=O)NCC3COc4ccccc4O3)cc12

>  <IC50_nM>
11

>  <Assay Description>
Lanthascreen Competitive Binding Assay: The assay was performed according to manufacturer protocol. A mixture of nM GST-PPARG-LBD, 5 nM Tb-GST-antibody, 5 nM Fluormone Pan-PPAR Green, and serial dilutions of the experimental compound, beginning at 10 ׬M downwards, was added to wells of black 384-well low-volume plates (Greiner) to a total volume of 18 ׬L. All dilutions were made in TR-FRET assay buffer C. DMSO at 2% final concentration was used as a no-ligand control. Experiment was performed in triplicate, and incubated for 2 hours in the dark prior to assay read in Perkin Elmer ViewLux ultra HTS microplate reader. FRET signal was measured by excitation at 340 nm and emission at 520 nm for fluorescein and 490 nm for terbium. Fold change over DMSO was calculated using GraphPad Prism Software (La Jolla, Calif.) by calculating 520 nm/490 nm ratio. Graphs were plotted as fold change of FRET signal for compound treatment over DMSO-only control.

$$$$
CHEMBL3699425
Actelion Java MolfileCreator 2.0

  0  0  0  0  0  0              0 V3000
M  V30 BEGIN CTAB
M  V30 COUNTS 43 47 0 0 0
M  V30 BEGIN ATOM
M  V30 1 F 4.3301 0.9999 0.0 0
M  V30 2 C 4.3301 0.0 0.0 0
M  V30 3 C 3.4641 -0.5 0.0 0
M  V30 4 C 5.1961 -0.5 0.0 0
M  V30 5 C 3.4641 -1.5 0.0 0
M  V30 6 C 2.598 0.0 0.0 0 CFG=1
M  V30 7 C 5.1961 -1.5 0.0 0
M  V30 8 C 4.3301 -2.0 0.0 0
M  V30 9 N 1.732 -0.5 0.0 0
M  V30 10 C 2.598 1.0 0.0 0
M  V30 11 C 6.0621 -2.0 0.0 0
M  V30 12 C 0.866 0.0 0.0 0
M  V30 13 F 6.5621 -1.1339 0.0 0
M  V30 14 F 6.9282 -2.5 0.0 0
M  V30 15 F 5.5621 -2.866 0.0 0
M  V30 16 O 0.866 1.0 0.0 0
M  V30 17 C 0.0 -0.5 0.0 0
M  V30 18 C 0.0 -1.4999 0.0 0
M  V30 19 C -0.866 0.0 0.0 0
M  V30 20 C -0.866 -1.9999 0.0 0
M  V30 21 C -1.732 -0.4999 0.0 0
M  V30 22 C -1.732 -1.4999 0.0 0
M  V30 23 C -1.0739 -2.9781 0.0 0
M  V30 24 N -2.4751 -2.1691 0.0 0
M  V30 25 C -2.0684 -3.0826 0.0 0
M  V30 26 C -0.4048 -3.7212 0.0 0
M  V30 27 C -3.4533 -1.9612 0.0 0
M  V30 28 C -2.5684 -3.9487 0.0 0
M  V30 29 C -4.1224 -2.7043 0.0 0
M  V30 30 C -5.1006 -2.4964 0.0 0
M  V30 31 C -3.8134 -3.6554 0.0 0
M  V30 32 C -5.7697 -3.2395 0.0 0
M  V30 33 C -4.4825 -4.3985 0.0 0
M  V30 34 C -5.4607 -4.1906 0.0 0
M  V30 35 C -6.1298 -4.9337 0.0 0
M  V30 36 C -7.108 -4.7258 0.0 0
M  V30 37 C -5.8208 -5.8848 0.0 0
M  V30 38 C -7.417 -3.7748 0.0 0
M  V30 39 C -7.7771 -5.469 0.0 0
M  V30 40 C -6.4899 -6.6279 0.0 0
M  V30 41 O -6.7478 -3.0316 0.0 0
M  V30 42 O -8.3951 -3.5669 0.0 0
M  V30 43 C -7.4681 -6.42 0.0 0
M  V30 END ATOM
M  V30 BEGIN BOND
M  V30 1 1 1 2
M  V30 2 2 2 3
M  V30 3 1 2 4
M  V30 4 1 3 5
M  V30 5 1 3 6
M  V30 6 2 4 7
M  V30 7 2 5 8
M  V30 8 1 6 9
M  V30 9 1 6 10 CFG=1
M  V30 10 1 7 11
M  V30 11 1 9 12
M  V30 12 1 11 13
M  V30 13 1 11 14
M  V30 14 1 11 15
M  V30 15 2 12 16
M  V30 16 1 12 17
M  V30 17 2 17 18
M  V30 18 1 17 19
M  V30 19 1 18 20
M  V30 20 2 19 21
M  V30 21 2 20 22
M  V30 22 1 20 23
M  V30 23 1 22 24
M  V30 24 2 23 25
M  V30 25 1 23 26
M  V30 26 1 24 27
M  V30 27 1 25 28
M  V30 28 1 27 29
M  V30 29 2 29 30
M  V30 30 1 29 31
M  V30 31 1 30 32
M  V30 32 2 31 33
M  V30 33 2 32 34
M  V30 34 1 34 35
M  V30 35 2 35 36
M  V30 36 1 35 37
M  V30 37 1 36 38
M  V30 38 1 36 39
M  V30 39 2 37 40
M  V30 40 2 38 41
M  V30 41 1 38 42
M  V30 42 2 39 43
M  V30 43 1 7 8
M  V30 44 1 21 22
M  V30 45 1 24 25
M  V30 46 1 33 34
M  V30 47 1 40 43
M  V30 END BOND
M  V30 BEGIN COLLECTION
M  V30 MDLV30/STEABS ATOMS=(1 6)
M  V30 END COLLECTION
M  V30 END CTAB
M  END
>  <Molecule ChEMBL ID>
CHEMBL3699425

>  <Smiles>
Cc1c(C)n(Cc2ccc(-c3ccccc3C(=O)O)cc2)c2ccc(C(=O)N[C@@H](C)c3ccc(C(F)(F)F)cc3F)cc12

>  <IC50_nM>
11

>  <Assay Description>
Lanthascreen Competitive Binding Assay: The assay was performed according to manufacturer protocol. A mixture of nM GST-PPARG-LBD, 5 nM Tb-GST-antibody, 5 nM Fluormone Pan-PPAR Green, and serial dilutions of the experimental compound, beginning at 10 ׬M downwards, was added to wells of black 384-well low-volume plates (Greiner) to a total volume of 18 ׬L. All dilutions were made in TR-FRET assay buffer C. DMSO at 2% final concentration was used as a no-ligand control. Experiment was performed in triplicate, and incubated for 2 hours in the dark prior to assay read in Perkin Elmer ViewLux ultra HTS microplate reader. FRET signal was measured by excitation at 340 nm and emission at 520 nm for fluorescein and 490 nm for terbium. Fold change over DMSO was calculated using GraphPad Prism Software (La Jolla, Calif.) by calculating 520 nm/490 nm ratio. Graphs were plotted as fold change of FRET signal for compound treatment over DMSO-only control.

$$$$
CHEMBL121
Actelion Java MolfileCreator 2.0

  0  0  0  0  0  0              0 V3000
M  V30 BEGIN CTAB
M  V30 COUNTS 25 27 0 0 0
M  V30 BEGIN ATOM
M  V30 1 S 7.8987 0.0054 0.0 0
M  V30 2 C 8.8769 -0.2024 0.0 0
M  V30 3 C 7.7942 0.9999 0.0 0 CFG=2
M  V30 4 O 9.2836 -1.1159 0.0 0
M  V30 5 N 9.3769 0.6635 0.0 0
M  V30 6 C 8.7077 1.4067 0.0 0
M  V30 7 C 6.9282 1.4999 0.0 0
M  V30 8 O 8.9156 2.3848 0.0 0
M  V30 9 C 6.0621 0.9999 0.0 0
M  V30 10 C 5.1961 1.4999 0.0 0
M  V30 11 C 6.0621 0.0 0.0 0
M  V30 12 C 4.3301 0.9999 0.0 0
M  V30 13 C 5.1961 -0.5 0.0 0
M  V30 14 C 4.3301 0.0 0.0 0
M  V30 15 O 3.4641 -0.5 0.0 0
M  V30 16 C 2.598 0.0 0.0 0
M  V30 17 C 1.732 -0.5 0.0 0
M  V30 18 N 0.866 0.0 0.0 0
M  V30 19 C 0.866 1.0 0.0 0
M  V30 20 C 0.0 -0.5 0.0 0
M  V30 21 N 1.732 1.4999 0.0 0
M  V30 22 C 0.0 1.4999 0.0 0
M  V30 23 C 1.732 2.5 0.0 0
M  V30 24 C 0.0 2.5 0.0 0
M  V30 25 C 0.866 3.0 0.0 0
M  V30 END ATOM
M  V30 BEGIN BOND
M  V30 1 1 1 2
M  V30 2 1 1 3
M  V30 3 2 2 4
M  V30 4 1 2 5
M  V30 5 1 3 6
M  V30 6 1 3 7 CFG=1
M  V30 7 2 6 8
M  V30 8 1 7 9
M  V30 9 2 9 10
M  V30 10 1 9 11
M  V30 11 1 10 12
M  V30 12 2 11 13
M  V30 13 2 12 14
M  V30 14 1 14 15
M  V30 15 1 15 16
M  V30 16 1 16 17
M  V30 17 1 17 18
M  V30 18 1 18 19
M  V30 19 1 18 20
M  V30 20 2 19 21
M  V30 21 1 19 22
M  V30 22 1 21 23
M  V30 23 2 22 24
M  V30 24 2 23 25
M  V30 25 1 5 6
M  V30 26 1 13 14
M  V30 27 1 24 25
M  V30 END BOND
M  V30 BEGIN COLLECTION
M  V30 MDLV30/STERAC1 ATOMS=(1 3)
M  V30 END COLLECTION
M  V30 END CTAB
M  END
>  <Molecule ChEMBL ID>
CHEMBL121

>  <Smiles>
CN(CCOc1ccc(CC2SC(=O)NC2=O)cc1)c1ccccn1

>  <IC50_nM>
11

>  <Assay Description>
Binding affinity to human PPARgamma receptor by radioligand displacement assay

$$$$
CHEMBL1946572
Actelion Java MolfileCreator 2.0

  0  0  0  0  0  0              0 V3000
M  V30 BEGIN CTAB
M  V30 COUNTS 38 42 0 0 0
M  V30 BEGIN ATOM
M  V30 1 Cl 4.3301 0.9999 0.0 0
M  V30 2 C 4.3301 0.0 0.0 0
M  V30 3 C 3.4641 -0.5 0.0 0
M  V30 4 C 5.1961 -0.5 0.0 0
M  V30 5 O 2.598 0.0 0.0 0
M  V30 6 C 3.4641 -1.5 0.0 0
M  V30 7 C 5.1961 -1.5 0.0 0
M  V30 8 C 1.732 -0.5 0.0 0 CFG=1
M  V30 9 C 4.3301 -2.0 0.0 0
M  V30 10 C 0.866 0.0 0.0 0
M  V30 11 C 1.732 -1.5 0.0 0
M  V30 12 C 4.3301 -3.0 0.0 0
M  V30 13 O 0.866 1.0 0.0 0
M  V30 14 O 0.0 -0.5 0.0 0
M  V30 15 N 5.1961 -3.5 0.0 0
M  V30 16 C 5.3006 -4.4945 0.0 0
M  V30 17 C 6.1096 -3.0932 0.0 0
M  V30 18 O 4.5575 -5.1636 0.0 0
M  V30 19 N 6.2788 -4.7024 0.0 0
M  V30 20 C 6.7788 -3.8364 0.0 0
M  V30 21 C 6.4187 -2.1422 0.0 0
M  V30 22 C 6.6855 -5.6159 0.0 0
M  V30 23 C 7.7569 -3.6284 0.0 0
M  V30 24 C 7.3968 -1.9342 0.0 0
M  V30 25 N 6.1855 -6.482 0.0 0
M  V30 26 C 7.6637 -5.8238 0.0 0
M  V30 27 C 8.0659 -2.6774 0.0 0
M  V30 28 C 7.7058 -0.9832 0.0 0
M  V30 29 O 6.8546 -7.2251 0.0 0
M  V30 30 C 7.7682 -6.8184 0.0 0
M  V30 31 C 8.4727 -5.2361 0.0 0
M  V30 32 F 6.7548 -0.6742 0.0 0
M  V30 33 F 8.0148 -0.0321 0.0 0
M  V30 34 F 8.6569 -1.2922 0.0 0
M  V30 35 C 8.6817 -7.2251 0.0 0
M  V30 36 C 9.3862 -5.6428 0.0 0
M  V30 37 C 9.4908 -6.6373 0.0 0
M  V30 38 C 10.1952 -5.055 0.0 0
M  V30 END ATOM
M  V30 BEGIN BOND
M  V30 1 1 1 2
M  V30 2 2 2 3
M  V30 3 1 2 4
M  V30 4 1 3 5
M  V30 5 1 3 6
M  V30 6 2 4 7
M  V30 7 1 5 8
M  V30 8 2 6 9
M  V30 9 1 8 10
M  V30 10 1 8 11 CFG=3
M  V30 11 1 9 12
M  V30 12 2 10 13
M  V30 13 1 10 14
M  V30 14 1 12 15
M  V30 15 1 15 16
M  V30 16 1 15 17
M  V30 17 2 16 18
M  V30 18 1 16 19
M  V30 19 2 17 20
M  V30 20 1 17 21
M  V30 21 1 19 22
M  V30 22 1 20 23
M  V30 23 2 21 24
M  V30 24 2 22 25
M  V30 25 1 22 26
M  V30 26 2 23 27
M  V30 27 1 24 28
M  V30 28 1 25 29
M  V30 29 2 26 30
M  V30 30 1 26 31
M  V30 31 1 28 32
M  V30 32 1 28 33
M  V30 33 1 28 34
M  V30 34 1 30 35
M  V30 35 2 31 36
M  V30 36 2 35 37
M  V30 37 1 36 38
M  V30 38 1 7 9
M  V30 39 1 19 20
M  V30 40 1 24 27
M  V30 41 1 29 30
M  V30 42 1 36 37
M  V30 END BOND
M  V30 BEGIN COLLECTION
M  V30 MDLV30/STEABS ATOMS=(1 8)
M  V30 END COLLECTION
M  V30 END CTAB
M  END
>  <Molecule ChEMBL ID>
CHEMBL1946572

>  <Smiles>
Cc1ccc2onc(-n3c(=O)n(Cc4ccc(Cl)c(O[C@H](C)C(=O)O)c4)c4cc(C(F)(F)F)ccc43)c2c1

>  <IC50_nM>
11.2

>  <Assay Description>
Binding affinity to human PPARgamma by scintillation proximity assay

$$$$
CHEMBL236877
Actelion Java MolfileCreator 2.0

  0  0  0  0  0  0              0 V3000
M  V30 BEGIN CTAB
M  V30 COUNTS 36 38 0 0 0
M  V30 BEGIN ATOM
M  V30 1 Br 6.4951 1.5 0.0 0
M  V30 2 C 6.4951 0.0 0.0 0
M  V30 3 C 5.1961 -0.75 0.0 0
M  V30 4 C 7.7942 -0.75 0.0 0
M  V30 5 C 3.8971 0.0 0.0 0
M  V30 6 C 5.1961 -2.25 0.0 0
M  V30 7 C 7.7942 -2.25 0.0 0
M  V30 8 O 3.8971 1.5 0.0 0
M  V30 9 N 2.598 -0.75 0.0 0
M  V30 10 C 6.4951 -3.0 0.0 0
M  V30 11 C 9.0932 -3.0 0.0 0
M  V30 12 C 1.299 0.0 0.0 0
M  V30 13 F 9.8432 -1.7009 0.0 0
M  V30 14 F 10.3923 -3.75 0.0 0
M  V30 15 F 8.3432 -4.299 0.0 0
M  V30 16 C 0.0 -0.75 0.0 0
M  V30 17 C -1.299 0.0 0.0 0
M  V30 18 C 0.0 -2.25 0.0 0
M  V30 19 C -2.598 -0.75 0.0 0
M  V30 20 C -1.299 -3.0 0.0 0
M  V30 21 O -3.8971 0.0 0.0 0
M  V30 22 C -2.598 -2.25 0.0 0
M  V30 23 C -5.1961 -0.75 0.0 0
M  V30 24 C -6.4951 0.0 0.0 0
M  V30 25 C -5.1961 -2.25 0.0 0
M  V30 26 C -7.7942 -0.75 0.0 0
M  V30 27 C -6.4951 -3.0 0.0 0
M  V30 28 C -7.7942 -2.25 0.0 0
M  V30 29 C -9.0932 0.0 0.0 0
M  V30 30 O -9.0932 -3.0 0.0 0
M  V30 31 C -9.0932 -4.5 0.0 0
M  V30 32 C -10.3923 -5.25 0.0 0
M  V30 33 C -8.3433 -5.799 0.0 0
M  V30 34 C -7.5933 -4.4999 0.0 0
M  V30 35 O -11.6913 -4.5 0.0 0
M  V30 36 O -10.3923 -6.75 0.0 0
M  V30 END ATOM
M  V30 BEGIN BOND
M  V30 1 1 1 2
M  V30 2 2 2 3
M  V30 3 1 2 4
M  V30 4 1 3 5
M  V30 5 1 3 6
M  V30 6 2 4 7
M  V30 7 2 5 8
M  V30 8 1 5 9
M  V30 9 2 6 10
M  V30 10 1 7 11
M  V30 11 1 9 12
M  V30 12 1 11 13
M  V30 13 1 11 14
M  V30 14 1 11 15
M  V30 15 1 12 16
M  V30 16 2 16 17
M  V30 17 1 16 18
M  V30 18 1 17 19
M  V30 19 2 18 20
M  V30 20 1 19 21
M  V30 21 2 19 22
M  V30 22 1 21 23
M  V30 23 2 23 24
M  V30 24 1 23 25
M  V30 25 1 24 26
M  V30 26 2 25 27
M  V30 27 2 26 28
M  V30 28 1 26 29
M  V30 29 1 28 30
M  V30 30 1 30 31
M  V30 31 1 31 32
M  V30 32 1 31 33
M  V30 33 1 31 34
M  V30 34 2 32 35
M  V30 35 1 32 36
M  V30 36 1 7 10
M  V30 37 1 20 22
M  V30 38 1 27 28
M  V30 END BOND
M  V30 END CTAB
M  END
>  <Molecule ChEMBL ID>
CHEMBL236877

>  <Smiles>
Cc1cc(Oc2cccc(CNC(=O)c3ccc(C(F)(F)F)cc3Br)c2)ccc1OC(C)(C)C(=O)O

>  <IC50_nM>
11.99

>  <Assay Description>
Agonist activity at PPARgamma

$$$$
CHEMBL212911
Actelion Java MolfileCreator 2.0

  0  0  0  0  0  0              0 V3000
M  V30 BEGIN CTAB
M  V30 COUNTS 34 36 0 0 0
M  V30 BEGIN ATOM
M  V30 1 O 5.1961 1.5 0.0 0
M  V30 2 C 6.0621 1.0 0.0 0
M  V30 3 C 6.0621 0.0 0.0 0
M  V30 4 C 6.9282 1.5 0.0 0
M  V30 5 C 5.1961 -0.5 0.0 0
M  V30 6 C 6.9282 -0.4999 0.0 0
M  V30 7 C 7.7942 0.9999 0.0 0
M  V30 8 C 6.9282 2.4999 0.0 0
M  V30 9 O 4.3301 0.0 0.0 0
M  V30 10 C 5.1961 -1.4999 0.0 0
M  V30 11 C 6.9282 -1.4999 0.0 0
M  V30 12 C 8.6602 1.4999 0.0 0
M  V30 13 C 7.7942 2.9999 0.0 0
M  V30 14 C 3.4641 -0.5 0.0 0 CFG=1
M  V30 15 C 6.0621 -1.9999 0.0 0
M  V30 16 C 7.7942 -1.9999 0.0 0
M  V30 17 C 8.6602 2.4999 0.0 0
M  V30 18 C 2.598 0.0 0.0 0
M  V30 19 C 3.4641 -1.5 0.0 0
M  V30 20 C 8.6602 -1.4999 0.0 0
M  V30 21 C 1.732 -0.5 0.0 0
M  V30 22 O 0.866 0.0 0.0 0
M  V30 23 C 0.0 -0.5 0.0 0
M  V30 24 C -0.866 0.0 0.0 0
M  V30 25 C 0.0 -1.4999 0.0 0
M  V30 26 C -1.732 -0.4999 0.0 0
M  V30 27 C -0.866 -1.9999 0.0 0
M  V30 28 C -1.732 -1.4999 0.0 0
M  V30 29 C -2.598 0.0 0.0 0
M  V30 30 C -2.598 -1.9999 0.0 0
M  V30 31 C -2.598 -2.9999 0.0 0
M  V30 32 C -3.4641 -3.4999 0.0 0
M  V30 33 O -4.3301 -2.9999 0.0 0
M  V30 34 O -3.4641 -4.4999 0.0 0
M  V30 END ATOM
M  V30 BEGIN BOND
M  V30 1 2 1 2
M  V30 2 1 2 3
M  V30 3 1 2 4
M  V30 4 2 3 5
M  V30 5 1 3 6
M  V30 6 2 4 7
M  V30 7 1 4 8
M  V30 8 1 5 9
M  V30 9 1 5 10
M  V30 10 2 6 11
M  V30 11 1 7 12
M  V30 12 2 8 13
M  V30 13 1 9 14
M  V30 14 2 10 15
M  V30 15 1 11 16
M  V30 16 2 12 17
M  V30 17 1 14 18
M  V30 18 1 14 19 CFG=3
M  V30 19 1 16 20
M  V30 20 1 18 21
M  V30 21 1 21 22
M  V30 22 1 22 23
M  V30 23 2 23 24
M  V30 24 1 23 25
M  V30 25 1 24 26
M  V30 26 2 25 27
M  V30 27 2 26 28
M  V30 28 1 26 29
M  V30 29 1 28 30
M  V30 30 1 30 31
M  V30 31 1 31 32
M  V30 32 2 32 33
M  V30 33 1 32 34
M  V30 34 1 11 15
M  V30 35 1 13 17
M  V30 36 1 27 28
M  V30 END BOND
M  V30 BEGIN COLLECTION
M  V30 MDLV30/STEABS ATOMS=(1 14)
M  V30 END COLLECTION
M  V30 END CTAB
M  END
>  <Molecule ChEMBL ID>
CHEMBL212911

>  <Smiles>
CCc1ccc(O[C@H](C)CCOc2ccc(CCC(=O)O)c(C)c2)c(C(=O)c2ccccc2)c1

>  <IC50_nM>
11.99

>  <Assay Description>
Agonist activity at PPARgamma

$$$$
CHEMBL236876
Actelion Java MolfileCreator 2.0

  0  0  0  0  0  0              0 V3000
M  V30 BEGIN CTAB
M  V30 COUNTS 36 38 0 0 0
M  V30 BEGIN ATOM
M  V30 1 F 6.4951 1.5 0.0 0
M  V30 2 C 6.4951 0.0 0.0 0
M  V30 3 C 5.1961 -0.75 0.0 0
M  V30 4 C 7.7942 -0.75 0.0 0
M  V30 5 C 3.8971 0.0 0.0 0
M  V30 6 C 5.1961 -2.25 0.0 0
M  V30 7 C 7.7942 -2.25 0.0 0
M  V30 8 O 3.8971 1.5 0.0 0
M  V30 9 N 2.598 -0.75 0.0 0
M  V30 10 C 6.4951 -3.0 0.0 0
M  V30 11 C 9.0932 -3.0 0.0 0
M  V30 12 C 1.299 0.0 0.0 0
M  V30 13 F 9.8432 -1.7009 0.0 0
M  V30 14 F 10.3923 -3.75 0.0 0
M  V30 15 F 8.3432 -4.299 0.0 0
M  V30 16 C 0.0 -0.75 0.0 0
M  V30 17 C -1.299 0.0 0.0 0
M  V30 18 C 0.0 -2.25 0.0 0
M  V30 19 C -2.598 -0.75 0.0 0
M  V30 20 C -1.299 -3.0 0.0 0
M  V30 21 O -3.8971 0.0 0.0 0
M  V30 22 C -2.598 -2.25 0.0 0
M  V30 23 C -5.1961 -0.75 0.0 0
M  V30 24 C -6.4951 0.0 0.0 0
M  V30 25 C -5.1961 -2.25 0.0 0
M  V30 26 C -7.7942 -0.75 0.0 0
M  V30 27 C -6.4951 -3.0 0.0 0
M  V30 28 C -7.7942 -2.25 0.0 0
M  V30 29 C -9.0932 0.0 0.0 0
M  V30 30 O -9.0932 -3.0 0.0 0
M  V30 31 C -9.0932 -4.5 0.0 0
M  V30 32 C -10.3923 -5.25 0.0 0
M  V30 33 C -8.3433 -5.799 0.0 0
M  V30 34 C -7.5933 -4.4999 0.0 0
M  V30 35 O -11.6913 -4.5 0.0 0
M  V30 36 O -10.3923 -6.75 0.0 0
M  V30 END ATOM
M  V30 BEGIN BOND
M  V30 1 1 1 2
M  V30 2 2 2 3
M  V30 3 1 2 4
M  V30 4 1 3 5
M  V30 5 1 3 6
M  V30 6 2 4 7
M  V30 7 2 5 8
M  V30 8 1 5 9
M  V30 9 2 6 10
M  V30 10 1 7 11
M  V30 11 1 9 12
M  V30 12 1 11 13
M  V30 13 1 11 14
M  V30 14 1 11 15
M  V30 15 1 12 16
M  V30 16 2 16 17
M  V30 17 1 16 18
M  V30 18 1 17 19
M  V30 19 2 18 20
M  V30 20 1 19 21
M  V30 21 2 19 22
M  V30 22 1 21 23
M  V30 23 2 23 24
M  V30 24 1 23 25
M  V30 25 1 24 26
M  V30 26 2 25 27
M  V30 27 2 26 28
M  V30 28 1 26 29
M  V30 29 1 28 30
M  V30 30 1 30 31
M  V30 31 1 31 32
M  V30 32 1 31 33
M  V30 33 1 31 34
M  V30 34 2 32 35
M  V30 35 1 32 36
M  V30 36 1 7 10
M  V30 37 1 20 22
M  V30 38 1 27 28
M  V30 END BOND
M  V30 END CTAB
M  END
>  <Molecule ChEMBL ID>
CHEMBL236876

>  <Smiles>
Cc1cc(Oc2cccc(CNC(=O)c3ccc(C(F)(F)F)cc3F)c2)ccc1OC(C)(C)C(=O)O

>  <IC50_nM>
11.99

>  <Assay Description>
Agonist activity at PPARgamma

$$$$
CHEMBL237518
Actelion Java MolfileCreator 2.0

  0  0  0  0  0  0              0 V3000
M  V30 BEGIN CTAB
M  V30 COUNTS 37 39 0 0 0
M  V30 BEGIN ATOM
M  V30 1 F 6.4951 1.5 0.0 0
M  V30 2 C 6.4951 0.0 0.0 0
M  V30 3 C 5.1961 -0.75 0.0 0
M  V30 4 C 7.7942 -0.75 0.0 0
M  V30 5 C 3.8971 0.0 0.0 0
M  V30 6 C 5.1961 -2.25 0.0 0
M  V30 7 C 7.7942 -2.25 0.0 0
M  V30 8 O 3.8971 1.5 0.0 0
M  V30 9 N 2.598 -0.75 0.0 0
M  V30 10 C 6.4951 -3.0 0.0 0
M  V30 11 C 9.0932 -3.0 0.0 0
M  V30 12 C 1.299 0.0 0.0 0
M  V30 13 F 9.8432 -1.7009 0.0 0
M  V30 14 F 10.3923 -3.75 0.0 0
M  V30 15 F 8.3432 -4.299 0.0 0
M  V30 16 C 0.0 -0.75 0.0 0
M  V30 17 C -1.299 0.0 0.0 0
M  V30 18 C 0.0 -2.25 0.0 0
M  V30 19 C -2.598 -0.75 0.0 0
M  V30 20 C -1.299 -3.0 0.0 0
M  V30 21 O -3.8971 0.0 0.0 0
M  V30 22 C -2.598 -2.25 0.0 0
M  V30 23 C -1.299 -4.5 0.0 0
M  V30 24 C -5.1961 -0.75 0.0 0
M  V30 25 C -6.4951 0.0 0.0 0
M  V30 26 C -5.1961 -2.25 0.0 0
M  V30 27 C -7.7942 -0.75 0.0 0
M  V30 28 C -6.4951 -3.0 0.0 0
M  V30 29 C -7.7942 -2.25 0.0 0
M  V30 30 C -9.0932 0.0 0.0 0
M  V30 31 O -9.0932 -3.0 0.0 0
M  V30 32 C -9.0932 -4.5 0.0 0
M  V30 33 C -10.3923 -5.25 0.0 0
M  V30 34 C -8.3433 -5.799 0.0 0
M  V30 35 C -7.5933 -4.4999 0.0 0
M  V30 36 O -11.6913 -4.5 0.0 0
M  V30 37 O -10.3923 -6.75 0.0 0
M  V30 END ATOM
M  V30 BEGIN BOND
M  V30 1 1 1 2
M  V30 2 2 2 3
M  V30 3 1 2 4
M  V30 4 1 3 5
M  V30 5 1 3 6
M  V30 6 2 4 7
M  V30 7 2 5 8
M  V30 8 1 5 9
M  V30 9 2 6 10
M  V30 10 1 7 11
M  V30 11 1 9 12
M  V30 12 1 11 13
M  V30 13 1 11 14
M  V30 14 1 11 15
M  V30 15 1 12 16
M  V30 16 2 16 17
M  V30 17 1 16 18
M  V30 18 1 17 19
M  V30 19 2 18 20
M  V30 20 1 19 21
M  V30 21 2 19 22
M  V30 22 1 20 23
M  V30 23 1 21 24
M  V30 24 2 24 25
M  V30 25 1 24 26
M  V30 26 1 25 27
M  V30 27 2 26 28
M  V30 28 2 27 29
M  V30 29 1 27 30
M  V30 30 1 29 31
M  V30 31 1 31 32
M  V30 32 1 32 33
M  V30 33 1 32 34
M  V30 34 1 32 35
M  V30 35 2 33 36
M  V30 36 1 33 37
M  V30 37 1 7 10
M  V30 38 1 20 22
M  V30 39 1 28 29
M  V30 END BOND
M  V30 END CTAB
M  END
>  <Molecule ChEMBL ID>
CHEMBL237518

>  <Smiles>
Cc1cc(CNC(=O)c2ccc(C(F)(F)F)cc2F)cc(Oc2ccc(OC(C)(C)C(=O)O)c(C)c2)c1

>  <IC50_nM>
11.99

>  <Assay Description>
Agonist activity at PPARgamma

$$$$
CHEMBL606422
Actelion Java MolfileCreator 2.0

  0  0  0  0  0  0              0 V3000
M  V30 BEGIN CTAB
M  V30 COUNTS 40 44 0 0 0
M  V30 BEGIN ATOM
M  V30 1 S 4.7349 3.2212 0.0 0
M  V30 2 C 5.404 2.4781 0.0 0
M  V30 3 C 3.7567 3.0133 0.0 0
M  V30 4 C 5.1961 1.4999 0.0 0
M  V30 5 C 6.3985 2.5826 0.0 0
M  V30 6 C 6.0621 1.0 0.0 0
M  V30 7 C 4.3301 0.9999 0.0 0
M  V30 8 N 6.8053 1.6691 0.0 0
M  V30 9 C 6.8985 3.4487 0.0 0
M  V30 10 C 6.0621 0.0 0.0 0
M  V30 11 C 4.3301 0.0 0.0 0
M  V30 12 C 7.7834 1.4612 0.0 0
M  V30 13 C 5.1961 -0.5 0.0 0
M  V30 14 C 3.4641 -0.5 0.0 0
M  V30 15 C 8.4526 2.2043 0.0 0
M  V30 16 O 3.4641 -1.5 0.0 0
M  V30 17 N 2.598 0.0 0.0 0
M  V30 18 C 9.4307 1.9964 0.0 0
M  V30 19 C 8.1435 3.1554 0.0 0
M  V30 20 C 1.732 -0.5 0.0 0 CFG=2
M  V30 21 C 10.0998 2.7395 0.0 0
M  V30 22 C 8.8127 3.8985 0.0 0
M  V30 23 C 1.732 -1.5 0.0 0
M  V30 24 C 0.866 0.0 0.0 0
M  V30 25 C 9.7908 3.6906 0.0 0
M  V30 26 C 0.866 -1.9999 0.0 0
M  V30 27 C 2.598 -2.0 0.0 0
M  V30 28 C 0.0 -0.5 0.0 0
M  V30 29 C 10.4599 4.4337 0.0 0
M  V30 30 C 0.866 -2.9999 0.0 0
M  V30 31 C 2.598 -3.0 0.0 0
M  V30 32 C 11.4381 4.2258 0.0 0
M  V30 33 C 10.1509 5.3848 0.0 0
M  V30 34 C 1.732 -3.5 0.0 0
M  V30 35 C 11.7471 3.2748 0.0 0
M  V30 36 C 12.1072 4.969 0.0 0
M  V30 37 C 10.8201 6.1279 0.0 0
M  V30 38 O 11.078 2.5316 0.0 0
M  V30 39 O 12.7253 3.0669 0.0 0
M  V30 40 C 11.7982 5.92 0.0 0
M  V30 END ATOM
M  V30 BEGIN BOND
M  V30 1 1 1 2
M  V30 2 1 1 3
M  V30 3 1 2 4
M  V30 4 2 2 5
M  V30 5 2 4 6
M  V30 6 1 4 7
M  V30 7 1 5 8
M  V30 8 1 5 9
M  V30 9 1 6 10
M  V30 10 2 7 11
M  V30 11 1 8 12
M  V30 12 2 10 13
M  V30 13 1 11 14
M  V30 14 1 12 15
M  V30 15 2 14 16
M  V30 16 1 14 17
M  V30 17 2 15 18
M  V30 18 1 15 19
M  V30 19 1 20 17 CFG=3
M  V30 20 1 18 21
M  V30 21 2 19 22
M  V30 22 1 20 23
M  V30 23 1 20 24
M  V30 24 2 21 25
M  V30 25 2 23 26
M  V30 26 1 23 27
M  V30 27 1 24 28
M  V30 28 1 25 29
M  V30 29 1 26 30
M  V30 30 2 27 31
M  V30 31 2 29 32
M  V30 32 1 29 33
M  V30 33 2 30 34
M  V30 34 1 32 35
M  V30 35 1 32 36
M  V30 36 2 33 37
M  V30 37 2 35 38
M  V30 38 1 35 39
M  V30 39 2 36 40
M  V30 40 1 6 8
M  V30 41 1 11 13
M  V30 42 1 22 25
M  V30 43 1 31 34
M  V30 44 1 37 40
M  V30 END BOND
M  V30 BEGIN COLLECTION
M  V30 MDLV30/STERAC1 ATOMS=(1 20)
M  V30 END COLLECTION
M  V30 END CTAB
M  END
>  <Molecule ChEMBL ID>
CHEMBL606422

>  <Smiles>
CCC(NC(=O)c1ccc2c(c1)c(SC)c(C)n2Cc1ccc(-c2ccccc2C(=O)O)cc1)c1ccccc1

>  <IC50_nM>
12

>  <Assay Description>
Displacement of radiolabeled ((5-{4-[Methyl-pyridin-2yl-amino)-ethoxy]-benzyl}-thiazolidine-2,4-dione) from human PPARgamma ligand binding domain expressed in Escherichia coli

$$$$
CHEMBL237518
Actelion Java MolfileCreator 2.0

  0  0  0  0  0  0              0 V3000
M  V30 BEGIN CTAB
M  V30 COUNTS 37 39 0 0 0
M  V30 BEGIN ATOM
M  V30 1 F 6.4951 1.5 0.0 0
M  V30 2 C 6.4951 0.0 0.0 0
M  V30 3 C 5.1961 -0.75 0.0 0
M  V30 4 C 7.7942 -0.75 0.0 0
M  V30 5 C 3.8971 0.0 0.0 0
M  V30 6 C 5.1961 -2.25 0.0 0
M  V30 7 C 7.7942 -2.25 0.0 0
M  V30 8 O 3.8971 1.5 0.0 0
M  V30 9 N 2.598 -0.75 0.0 0
M  V30 10 C 6.4951 -3.0 0.0 0
M  V30 11 C 9.0932 -3.0 0.0 0
M  V30 12 C 1.299 0.0 0.0 0
M  V30 13 F 9.8432 -1.7009 0.0 0
M  V30 14 F 10.3923 -3.75 0.0 0
M  V30 15 F 8.3432 -4.299 0.0 0
M  V30 16 C 0.0 -0.75 0.0 0
M  V30 17 C -1.299 0.0 0.0 0
M  V30 18 C 0.0 -2.25 0.0 0
M  V30 19 C -2.598 -0.75 0.0 0
M  V30 20 C -1.299 -3.0 0.0 0
M  V30 21 O -3.8971 0.0 0.0 0
M  V30 22 C -2.598 -2.25 0.0 0
M  V30 23 C -1.299 -4.5 0.0 0
M  V30 24 C -5.1961 -0.75 0.0 0
M  V30 25 C -6.4951 0.0 0.0 0
M  V30 26 C -5.1961 -2.25 0.0 0
M  V30 27 C -7.7942 -0.75 0.0 0
M  V30 28 C -6.4951 -3.0 0.0 0
M  V30 29 C -7.7942 -2.25 0.0 0
M  V30 30 C -9.0932 0.0 0.0 0
M  V30 31 O -9.0932 -3.0 0.0 0
M  V30 32 C -9.0932 -4.5 0.0 0
M  V30 33 C -10.3923 -5.25 0.0 0
M  V30 34 C -8.3433 -5.799 0.0 0
M  V30 35 C -7.5933 -4.4999 0.0 0
M  V30 36 O -11.6913 -4.5 0.0 0
M  V30 37 O -10.3923 -6.75 0.0 0
M  V30 END ATOM
M  V30 BEGIN BOND
M  V30 1 1 1 2
M  V30 2 2 2 3
M  V30 3 1 2 4
M  V30 4 1 3 5
M  V30 5 1 3 6
M  V30 6 2 4 7
M  V30 7 2 5 8
M  V30 8 1 5 9
M  V30 9 2 6 10
M  V30 10 1 7 11
M  V30 11 1 9 12
M  V30 12 1 11 13
M  V30 13 1 11 14
M  V30 14 1 11 15
M  V30 15 1 12 16
M  V30 16 2 16 17
M  V30 17 1 16 18
M  V30 18 1 17 19
M  V30 19 2 18 20
M  V30 20 1 19 21
M  V30 21 2 19 22
M  V30 22 1 20 23
M  V30 23 1 21 24
M  V30 24 2 24 25
M  V30 25 1 24 26
M  V30 26 1 25 27
M  V30 27 2 26 28
M  V30 28 2 27 29
M  V30 29 1 27 30
M  V30 30 1 29 31
M  V30 31 1 31 32
M  V30 32 1 32 33
M  V30 33 1 32 34
M  V30 34 1 32 35
M  V30 35 2 33 36
M  V30 36 1 33 37
M  V30 37 1 7 10
M  V30 38 1 20 22
M  V30 39 1 28 29
M  V30 END BOND
M  V30 END CTAB
M  END
>  <Molecule ChEMBL ID>
CHEMBL237518

>  <Smiles>
Cc1cc(CNC(=O)c2ccc(C(F)(F)F)cc2F)cc(Oc2ccc(OC(C)(C)C(=O)O)c(C)c2)c1

>  <IC50_nM>
12

>  <Assay Description>
Displacement of [3H]2-methyl-2-(4-{3-{propyl-(5-pyridin-2-yl-thiophene-2-sulfonyl)-amino}-propyl}-phenoxy)-propionic acid from human PPARgamma

$$$$
CHEMBL3695869
Actelion Java MolfileCreator 2.0

  0  0  0  0  0  0              0 V3000
M  V30 BEGIN CTAB
M  V30 COUNTS 38 42 0 0 0
M  V30 BEGIN ATOM
M  V30 1 F 6.4951 -4.5 0.0 0
M  V30 2 C 6.4951 -3.0 0.0 0
M  V30 3 C 7.7942 -2.25 0.0 0
M  V30 4 C 5.1961 -2.25 0.0 0
M  V30 5 C 7.7942 -0.75 0.0 0
M  V30 6 C 5.1961 -0.75 0.0 0
M  V30 7 O 9.0932 0.0 0.0 0
M  V30 8 C 6.4951 0.0 0.0 0
M  V30 9 C 3.8971 0.0 0.0 0 CFG=1
M  V30 10 C 9.0932 1.4999 0.0 0
M  V30 11 N 2.598 -0.75 0.0 0
M  V30 12 C 3.8971 1.5 0.0 0
M  V30 13 C 1.299 0.0 0.0 0
M  V30 14 O 1.299 1.5 0.0 0
M  V30 15 C 0.0 -0.75 0.0 0
M  V30 16 C 0.0 -2.25 0.0 0
M  V30 17 C -1.299 0.0 0.0 0
M  V30 18 C -1.299 -2.9999 0.0 0
M  V30 19 C -2.598 -0.7499 0.0 0
M  V30 20 C -2.598 -2.2499 0.0 0
M  V30 21 C -1.6109 -4.4672 0.0 0
M  V30 22 N -3.7127 -3.2536 0.0 0
M  V30 23 C -3.1026 -4.624 0.0 0
M  V30 24 C -0.6072 -5.5819 0.0 0
M  V30 25 C -5.18 -2.9418 0.0 0
M  V30 26 C -3.8526 -5.923 0.0 0
M  V30 27 C -6.1837 -4.0565 0.0 0
M  V30 28 C -7.6509 -3.7446 0.0 0
M  V30 29 C -5.7201 -5.4831 0.0 0
M  V30 30 C -8.6546 -4.8593 0.0 0
M  V30 31 C -6.7238 -6.5978 0.0 0
M  V30 32 C -8.1911 -6.2859 0.0 0
M  V30 33 C -9.1947 -7.4006 0.0 0
M  V30 34 C -10.662 -7.0888 0.0 0
M  V30 35 C -8.7312 -8.8272 0.0 0
M  V30 36 C -11.6657 -8.2035 0.0 0
M  V30 37 C -9.7349 -9.9419 0.0 0
M  V30 38 C -11.2021 -9.6301 0.0 0
M  V30 END ATOM
M  V30 BEGIN BOND
M  V30 1 1 1 2
M  V30 2 2 2 3
M  V30 3 1 2 4
M  V30 4 1 3 5
M  V30 5 2 4 6
M  V30 6 1 5 7
M  V30 7 2 5 8
M  V30 8 1 6 9
M  V30 9 1 7 10
M  V30 10 1 9 11
M  V30 11 1 9 12 CFG=1
M  V30 12 1 11 13
M  V30 13 2 13 14
M  V30 14 1 13 15
M  V30 15 2 15 16
M  V30 16 1 15 17
M  V30 17 1 16 18
M  V30 18 2 17 19
M  V30 19 2 18 20
M  V30 20 1 18 21
M  V30 21 1 20 22
M  V30 22 2 21 23
M  V30 23 1 21 24
M  V30 24 1 22 25
M  V30 25 1 23 26
M  V30 26 1 25 27
M  V30 27 2 27 28
M  V30 28 1 27 29
M  V30 29 1 28 30
M  V30 30 2 29 31
M  V30 31 2 30 32
M  V30 32 1 32 33
M  V30 33 2 33 34
M  V30 34 1 33 35
M  V30 35 1 34 36
M  V30 36 2 35 37
M  V30 37 2 36 38
M  V30 38 1 6 8
M  V30 39 1 19 20
M  V30 40 1 22 23
M  V30 41 1 31 32
M  V30 42 1 37 38
M  V30 END BOND
M  V30 BEGIN COLLECTION
M  V30 MDLV30/STEABS ATOMS=(1 9)
M  V30 END COLLECTION
M  V30 END CTAB
M  END
>  <Molecule ChEMBL ID>
CHEMBL3695869

>  <Smiles>
COc1cc(F)cc([C@H](C)NC(=O)c2ccc3c(c2)c(C)c(C)n3Cc2ccc(-c3ccccc3)cc2)c1

>  <IC50_nM>
12

>  <Assay Description>
Lanthascreen Competitive Binding Assay: The assay was performed according to manufacturer protocol. A mixture of nM GST-PPARG-LBD, 5 nM Tb-GST-antibody, 5 nM Fluormone Pan-PPAR Green, and serial dilutions of the experimental compound, beginning at 10 ׬M downwards, was added to wells of black 384-well low-volume plates (Greiner) to a total volume of 18 ׬L. All dilutions were made in TR-FRET assay buffer C. DMSO at 2% final concentration was used as a no-ligand control. Experiment was performed in triplicate, and incubated for 2 hours in the dark prior to assay read in Perkin Elmer ViewLux ultra HTS microplate reader. FRET signal was measured by excitation at 340 nm and emission at 520 nm for fluorescein and 490 nm for terbium. Fold change over DMSO was calculated using GraphPad Prism Software (La Jolla, Calif.) by calculating 520 nm/490 nm ratio. Graphs were plotted as fold change of FRET signal for compound treatment over DMSO-only control.

$$$$
CHEMBL564036
Actelion Java MolfileCreator 2.0

  0  0  0  0  0  0              0 V3000
M  V30 BEGIN CTAB
M  V30 COUNTS 39 42 0 0 0
M  V30 BEGIN ATOM
M  V30 1 Cl 10.2663 -0.4223 0.0 0
M  V30 2 C 9.8595 0.4912 0.0 0
M  V30 3 C 10.4473 1.3002 0.0 0
M  V30 4 C 8.865 0.5957 0.0 0
M  V30 5 C 10.0406 2.2138 0.0 0
M  V30 6 C 8.4583 1.5093 0.0 0
M  V30 7 C 9.0461 2.3183 0.0 0
M  V30 8 C 8.6393 3.2318 0.0 0
M  V30 9 O 9.2271 4.0408 0.0 0
M  V30 10 C 7.6448 3.3364 0.0 0
M  V30 11 C 7.1448 4.2024 0.0 0
M  V30 12 C 6.9757 2.5932 0.0 0
M  V30 13 C 6.1667 3.9945 0.0 0
M  V30 14 C 7.4538 5.1534 0.0 0
M  V30 15 N 6.0621 2.9999 0.0 0
M  V30 16 C 7.1836 1.6151 0.0 0
M  V30 17 C 5.4975 4.7376 0.0 0
M  V30 18 C 6.7847 5.8966 0.0 0
M  V30 19 C 5.1961 2.5 0.0 0
M  V30 20 C 5.8065 5.6887 0.0 0
M  V30 21 C 5.1961 1.4999 0.0 0
M  V30 22 O 5.1374 6.4318 0.0 0
M  V30 23 C 4.3301 1.0 0.0 0
M  V30 24 C 6.0621 0.9999 0.0 0
M  V30 25 C 4.1593 6.2239 0.0 0
M  V30 26 C 4.3301 0.0 0.0 0
M  V30 27 C 6.0621 0.0 0.0 0
M  V30 28 F 4.3672 5.2458 0.0 0
M  V30 29 F 3.1811 6.016 0.0 0
M  V30 30 F 3.9514 7.2021 0.0 0
M  V30 31 O 3.4641 -0.5 0.0 0
M  V30 32 C 5.1961 -0.5 0.0 0
M  V30 33 C 2.598 0.0 0.0 0 CFG=1
M  V30 34 C 2.598 1.0 0.0 0
M  V30 35 C 1.732 -0.5 0.0 0
M  V30 36 O 3.4641 1.4999 0.0 0
M  V30 37 O 1.732 1.5 0.0 0
M  V30 38 C 0.866 0.0 0.0 0
M  V30 39 C 0.0 -0.5 0.0 0
M  V30 END ATOM
M  V30 BEGIN BOND
M  V30 1 1 1 2
M  V30 2 2 2 3
M  V30 3 1 2 4
M  V30 4 1 3 5
M  V30 5 2 4 6
M  V30 6 2 5 7
M  V30 7 1 7 8
M  V30 8 2 8 9
M  V30 9 1 8 10
M  V30 10 1 10 11
M  V30 11 2 10 12
M  V30 12 2 11 13
M  V30 13 1 11 14
M  V30 14 1 12 15
M  V30 15 1 12 16
M  V30 16 1 13 17
M  V30 17 2 14 18
M  V30 18 1 15 19
M  V30 19 2 17 20
M  V30 20 1 19 21
M  V30 21 1 20 22
M  V30 22 2 21 23
M  V30 23 1 21 24
M  V30 24 1 22 25
M  V30 25 1 23 26
M  V30 26 2 24 27
M  V30 27 1 25 28
M  V30 28 1 25 29
M  V30 29 1 25 30
M  V30 30 1 26 31
M  V30 31 2 26 32
M  V30 32 1 33 31 CFG=3
M  V30 33 1 33 34
M  V30 34 1 33 35
M  V30 35 2 34 36
M  V30 36 1 34 37
M  V30 37 1 35 38
M  V30 38 1 38 39
M  V30 39 1 6 7
M  V30 40 1 13 15
M  V30 41 1 18 20
M  V30 42 1 27 32
M  V30 END BOND
M  V30 BEGIN COLLECTION
M  V30 MDLV30/STEABS ATOMS=(1 33)
M  V30 END COLLECTION
M  V30 END CTAB
M  END
>  <Molecule ChEMBL ID>
CHEMBL564036

>  <Smiles>
CCC[C@@H](Oc1cccc(Cn2c(C)c(C(=O)c3ccc(Cl)cc3)c3ccc(OC(F)(F)F)cc32)c1)C(=O)O

>  <IC50_nM>
12

>  <Assay Description>
Inhibition of human PPARgamma receptor by scintillation proximity assay

$$$$
CHEMBL3695822
Actelion Java MolfileCreator 2.0

  0  0  0  0  0  0              0 V3000
M  V30 BEGIN CTAB
M  V30 COUNTS 37 41 0 0 0
M  V30 BEGIN ATOM
M  V30 1 O 11.8592 -3.5669 0.0 0
M  V30 2 C 10.8811 -3.7748 0.0 0
M  V30 3 O 10.212 -3.0316 0.0 0
M  V30 4 C 10.5721 -4.7258 0.0 0
M  V30 5 C 9.5939 -4.9337 0.0 0
M  V30 6 C 11.2412 -5.469 0.0 0
M  V30 7 C 8.9248 -4.1906 0.0 0
M  V30 8 C 9.2849 -5.8848 0.0 0
M  V30 9 C 10.9322 -6.42 0.0 0
M  V30 10 C 9.2338 -3.2395 0.0 0
M  V30 11 C 7.9466 -4.3985 0.0 0
M  V30 12 C 9.954 -6.6279 0.0 0
M  V30 13 C 8.5647 -2.4964 0.0 0
M  V30 14 C 7.2775 -3.6554 0.0 0
M  V30 15 C 7.5865 -2.7043 0.0 0
M  V30 16 C 6.9174 -1.9612 0.0 0
M  V30 17 N 5.9392 -2.1691 0.0 0
M  V30 18 C 5.1961 -1.4999 0.0 0
M  V30 19 C 5.5325 -3.0826 0.0 0
M  V30 20 C 4.3301 -1.9999 0.0 0
M  V30 21 C 5.1961 -0.4999 0.0 0
M  V30 22 C 4.538 -2.9781 0.0 0
M  V30 23 C 6.0325 -3.9487 0.0 0
M  V30 24 C 3.4641 -1.5 0.0 0
M  V30 25 C 4.3301 0.0 0.0 0
M  V30 26 C 3.8689 -3.7212 0.0 0
M  V30 27 C 3.4641 -0.5 0.0 0
M  V30 28 C 2.598 0.0 0.0 0
M  V30 29 O 2.598 1.0 0.0 0
M  V30 30 N 1.732 -0.5 0.0 0
M  V30 31 C 0.866 0.0 0.0 0
M  V30 32 C 0.0 -0.5 0.0 0
M  V30 33 O -0.9135 -0.0932 0.0 0
M  V30 34 C -0.1045 -1.4945 0.0 0
M  V30 35 C -1.5826 -0.8364 0.0 0
M  V30 36 C -1.0826 -1.7024 0.0 0
M  V30 37 C -2.5771 -0.7318 0.0 0
M  V30 END ATOM
M  V30 BEGIN BOND
M  V30 1 2 1 2
M  V30 2 1 2 3
M  V30 3 1 2 4
M  V30 4 2 4 5
M  V30 5 1 4 6
M  V30 6 1 5 7
M  V30 7 1 5 8
M  V30 8 2 6 9
M  V30 9 2 7 10
M  V30 10 1 7 11
M  V30 11 2 8 12
M  V30 12 1 10 13
M  V30 13 2 11 14
M  V30 14 2 13 15
M  V30 15 1 15 16
M  V30 16 1 16 17
M  V30 17 1 17 18
M  V30 18 1 17 19
M  V30 19 2 18 20
M  V30 20 1 18 21
M  V30 21 2 19 22
M  V30 22 1 19 23
M  V30 23 1 20 24
M  V30 24 2 21 25
M  V30 25 1 22 26
M  V30 26 2 24 27
M  V30 27 1 27 28
M  V30 28 2 28 29
M  V30 29 1 28 30
M  V30 30 1 30 31
M  V30 31 1 31 32
M  V30 32 1 32 33
M  V30 33 2 32 34
M  V30 34 1 33 35
M  V30 35 1 34 36
M  V30 36 1 35 37
M  V30 37 1 9 12
M  V30 38 1 14 15
M  V30 39 1 20 22
M  V30 40 1 25 27
M  V30 41 2 35 36
M  V30 END BOND
M  V30 END CTAB
M  END
>  <Molecule ChEMBL ID>
CHEMBL3695822

>  <Smiles>
Cc1ccc(CNC(=O)c2ccc3c(c2)c(C)c(C)n3Cc2ccc(-c3ccccc3C(=O)O)cc2)o1

>  <IC50_nM>
12

>  <Assay Description>
Lanthascreen Competitive Binding Assay: The assay was performed according to manufacturer protocol. A mixture of nM GST-PPARG-LBD, 5 nM Tb-GST-antibody, 5 nM Fluormone Pan-PPAR Green, and serial dilutions of the experimental compound, beginning at 10 ׬M downwards, was added to wells of black 384-well low-volume plates (Greiner) to a total volume of 18 ׬L. All dilutions were made in TR-FRET assay buffer C. DMSO at 2% final concentration was used as a no-ligand control. Experiment was performed in triplicate, and incubated for 2 hours in the dark prior to assay read in Perkin Elmer ViewLux ultra HTS microplate reader. FRET signal was measured by excitation at 340 nm and emission at 520 nm for fluorescein and 490 nm for terbium. Fold change over DMSO was calculated using GraphPad Prism Software (La Jolla, Calif.) by calculating 520 nm/490 nm ratio. Graphs were plotted as fold change of FRET signal for compound treatment over DMSO-only control.

$$$$
CHEMBL373237
Actelion Java MolfileCreator 2.0

  0  0  0  0  0  0              0 V3000
M  V30 BEGIN CTAB
M  V30 COUNTS 33 36 0 0 0
M  V30 BEGIN ATOM
M  V30 1 F 3.8301 0.866 0.0 0
M  V30 2 C 4.3301 0.0 0.0 0
M  V30 3 F 5.1961 0.4999 0.0 0
M  V30 4 F 4.8301 -0.866 0.0 0
M  V30 5 C 3.4641 -0.5 0.0 0
M  V30 6 C 2.598 0.0 0.0 0
M  V30 7 C 3.4641 -1.4999 0.0 0
M  V30 8 C 1.732 -0.5 0.0 0
M  V30 9 C 2.598 -2.0 0.0 0
M  V30 10 O 0.866 0.0 0.0 0
M  V30 11 C 1.732 -1.5 0.0 0
M  V30 12 C 0.0 -0.5 0.0 0
M  V30 13 C -0.9135 -0.0932 0.0 0
M  V30 14 C -0.1045 -1.4945 0.0 0
M  V30 15 N -1.5826 -0.8364 0.0 0
M  V30 16 C -1.1214 0.8848 0.0 0
M  V30 17 C -1.0826 -1.7024 0.0 0
M  V30 18 C 0.5646 -2.2376 0.0 0
M  V30 19 C -2.5771 -0.7318 0.0 0
M  V30 20 O -0.3783 1.554 0.0 0
M  V30 21 O -2.0725 1.1939 0.0 0
M  V30 22 C -1.3916 -2.6534 0.0 0
M  V30 23 C 0.2555 -3.1887 0.0 0
M  V30 24 C -2.9839 0.1816 0.0 0
M  V30 25 C -3.1649 -1.5408 0.0 0
M  V30 26 C -0.7225 -3.3966 0.0 0
M  V30 27 C -3.9784 0.2861 0.0 0
M  V30 28 C -4.1595 -1.4363 0.0 0
M  V30 29 C -4.5662 -0.5228 0.0 0
M  V30 30 C -5.5607 -0.4182 0.0 0
M  V30 31 C -5.6652 -1.4128 0.0 0
M  V30 32 C -6.5552 -0.3137 0.0 0
M  V30 33 C -5.4562 0.5762 0.0 0
M  V30 END ATOM
M  V30 BEGIN BOND
M  V30 1 1 1 2
M  V30 2 1 2 3
M  V30 3 1 2 4
M  V30 4 1 2 5
M  V30 5 2 5 6
M  V30 6 1 5 7
M  V30 7 1 6 8
M  V30 8 2 7 9
M  V30 9 1 8 10
M  V30 10 2 8 11
M  V30 11 1 10 12
M  V30 12 2 12 13
M  V30 13 1 12 14
M  V30 14 1 13 15
M  V30 15 1 13 16
M  V30 16 2 14 17
M  V30 17 1 14 18
M  V30 18 1 15 19
M  V30 19 2 16 20
M  V30 20 1 16 21
M  V30 21 1 17 22
M  V30 22 2 18 23
M  V30 23 2 19 24
M  V30 24 1 19 25
M  V30 25 2 22 26
M  V30 26 1 24 27
M  V30 27 2 25 28
M  V30 28 2 27 29
M  V30 29 1 29 30
M  V30 30 1 30 31
M  V30 31 1 30 32
M  V30 32 1 30 33
M  V30 33 1 9 11
M  V30 34 1 15 17
M  V30 35 1 23 26
M  V30 36 1 28 29
M  V30 END BOND
M  V30 END CTAB
M  END
>  <Molecule ChEMBL ID>
CHEMBL373237

>  <Smiles>
CC(C)(C)c1ccc(-n2c(C(=O)O)c(Oc3cccc(C(F)(F)F)c3)c3ccccc32)cc1

>  <IC50_nM>
12

>  <Assay Description>
Inhibitory concentration against human peroxisome proliferator activated receptor gamma in SPA assay

$$$$
CHEMBL236876
Actelion Java MolfileCreator 2.0

  0  0  0  0  0  0              0 V3000
M  V30 BEGIN CTAB
M  V30 COUNTS 36 38 0 0 0
M  V30 BEGIN ATOM
M  V30 1 F 6.4951 1.5 0.0 0
M  V30 2 C 6.4951 0.0 0.0 0
M  V30 3 C 5.1961 -0.75 0.0 0
M  V30 4 C 7.7942 -0.75 0.0 0
M  V30 5 C 3.8971 0.0 0.0 0
M  V30 6 C 5.1961 -2.25 0.0 0
M  V30 7 C 7.7942 -2.25 0.0 0
M  V30 8 O 3.8971 1.5 0.0 0
M  V30 9 N 2.598 -0.75 0.0 0
M  V30 10 C 6.4951 -3.0 0.0 0
M  V30 11 C 9.0932 -3.0 0.0 0
M  V30 12 C 1.299 0.0 0.0 0
M  V30 13 F 9.8432 -1.7009 0.0 0
M  V30 14 F 10.3923 -3.75 0.0 0
M  V30 15 F 8.3432 -4.299 0.0 0
M  V30 16 C 0.0 -0.75 0.0 0
M  V30 17 C -1.299 0.0 0.0 0
M  V30 18 C 0.0 -2.25 0.0 0
M  V30 19 C -2.598 -0.75 0.0 0
M  V30 20 C -1.299 -3.0 0.0 0
M  V30 21 O -3.8971 0.0 0.0 0
M  V30 22 C -2.598 -2.25 0.0 0
M  V30 23 C -5.1961 -0.75 0.0 0
M  V30 24 C -6.4951 0.0 0.0 0
M  V30 25 C -5.1961 -2.25 0.0 0
M  V30 26 C -7.7942 -0.75 0.0 0
M  V30 27 C -6.4951 -3.0 0.0 0
M  V30 28 C -7.7942 -2.25 0.0 0
M  V30 29 C -9.0932 0.0 0.0 0
M  V30 30 O -9.0932 -3.0 0.0 0
M  V30 31 C -9.0932 -4.5 0.0 0
M  V30 32 C -10.3923 -5.25 0.0 0
M  V30 33 C -8.3433 -5.799 0.0 0
M  V30 34 C -7.5933 -4.4999 0.0 0
M  V30 35 O -11.6913 -4.5 0.0 0
M  V30 36 O -10.3923 -6.75 0.0 0
M  V30 END ATOM
M  V30 BEGIN BOND
M  V30 1 1 1 2
M  V30 2 2 2 3
M  V30 3 1 2 4
M  V30 4 1 3 5
M  V30 5 1 3 6
M  V30 6 2 4 7
M  V30 7 2 5 8
M  V30 8 1 5 9
M  V30 9 2 6 10
M  V30 10 1 7 11
M  V30 11 1 9 12
M  V30 12 1 11 13
M  V30 13 1 11 14
M  V30 14 1 11 15
M  V30 15 1 12 16
M  V30 16 2 16 17
M  V30 17 1 16 18
M  V30 18 1 17 19
M  V30 19 2 18 20
M  V30 20 1 19 21
M  V30 21 2 19 22
M  V30 22 1 21 23
M  V30 23 2 23 24
M  V30 24 1 23 25
M  V30 25 1 24 26
M  V30 26 2 25 27
M  V30 27 2 26 28
M  V30 28 1 26 29
M  V30 29 1 28 30
M  V30 30 1 30 31
M  V30 31 1 31 32
M  V30 32 1 31 33
M  V30 33 1 31 34
M  V30 34 2 32 35
M  V30 35 1 32 36
M  V30 36 1 7 10
M  V30 37 1 20 22
M  V30 38 1 27 28
M  V30 END BOND
M  V30 END CTAB
M  END
>  <Molecule ChEMBL ID>
CHEMBL236876

>  <Smiles>
Cc1cc(Oc2cccc(CNC(=O)c3ccc(C(F)(F)F)cc3F)c2)ccc1OC(C)(C)C(=O)O

>  <IC50_nM>
12

>  <Assay Description>
Displacement of [3H]2-methyl-2-(4-{3-{propyl-(5-pyridin-2-yl-thiophene-2-sulfonyl)-amino}-propyl}-phenoxy)-propionic acid from human PPARgamma

$$$$
CHEMBL1933845
Actelion Java MolfileCreator 2.0

  0  0  0  0  0  0              0 V3000
M  V30 BEGIN CTAB
M  V30 COUNTS 33 35 0 0 0
M  V30 BEGIN ATOM
M  V30 1 Cl 14.8856 -4.1725 0.0 0
M  V30 2 C 13.7709 -5.1762 0.0 0
M  V30 3 C 12.3443 -4.7127 0.0 0
M  V30 4 C 14.0827 -6.6434 0.0 0
M  V30 5 C 11.2296 -5.7164 0.0 0
M  V30 6 C 12.0324 -3.2454 0.0 0
M  V30 7 C 12.968 -7.6471 0.0 0
M  V30 8 C 11.5414 -7.1836 0.0 0
M  V30 9 N 13.1471 -2.2417 0.0 0
M  V30 10 C 13.2799 -9.1143 0.0 0
M  V30 11 N 14.6144 -2.5536 0.0 0
M  V30 12 C 12.9903 -0.75 0.0 0
M  V30 13 F 14.7471 -8.8025 0.0 0
M  V30 14 F 13.5918 -10.5815 0.0 0
M  V30 15 F 11.8127 -9.4262 0.0 0
M  V30 16 C 15.3644 -1.2546 0.0 0
M  V30 17 C 14.3607 -0.1398 0.0 0
M  V30 18 C 11.6913 0.0 0.0 0
M  V30 19 C 16.8561 -1.0978 0.0 0
M  V30 20 C 11.6913 1.5 0.0 0
M  V30 21 C 18.2265 -1.7079 0.0 0
M  V30 22 C 18.0697 -0.2161 0.0 0
M  V30 23 C 10.3923 2.25 0.0 0
M  V30 24 O 9.0932 1.5 0.0 0
M  V30 25 N 10.3923 3.75 0.0 0
M  V30 26 S 9.0932 4.5 0.0 0
M  V30 27 O 8.3433 3.2009 0.0 0
M  V30 28 O 7.5933 4.5 0.0 0
M  V30 29 C 9.0932 6.0 0.0 0
M  V30 30 C 7.7942 6.75 0.0 0
M  V30 31 C 7.7942 8.25 0.0 0
M  V30 32 C 6.4951 9.0 0.0 0
M  V30 33 C 6.4951 10.5 0.0 0
M  V30 END ATOM
M  V30 BEGIN BOND
M  V30 1 1 1 2
M  V30 2 2 2 3
M  V30 3 1 2 4
M  V30 4 1 3 5
M  V30 5 1 3 6
M  V30 6 2 4 7
M  V30 7 2 5 8
M  V30 8 1 6 9
M  V30 9 1 7 10
M  V30 10 1 9 11
M  V30 11 1 9 12
M  V30 12 1 10 13
M  V30 13 1 10 14
M  V30 14 1 10 15
M  V30 15 2 11 16
M  V30 16 2 12 17
M  V30 17 1 12 18
M  V30 18 1 16 19
M  V30 19 2 18 20
M  V30 20 1 19 21
M  V30 21 1 19 22
M  V30 22 1 20 23
M  V30 23 2 23 24
M  V30 24 1 23 25
M  V30 25 1 25 26
M  V30 26 2 26 27
M  V30 27 2 26 28
M  V30 28 1 26 29
M  V30 29 1 29 30
M  V30 30 1 30 31
M  V30 31 1 31 32
M  V30 32 1 32 33
M  V30 33 1 7 8
M  V30 34 1 16 17
M  V30 35 1 21 22
M  V30 END BOND
M  V30 END CTAB
M  END
>  <Molecule ChEMBL ID>
CHEMBL1933845

>  <Smiles>
CCCCCS(=O)(=O)NC(=O)/C=C/c1cc(C2CC2)nn1Cc1ccc(C(F)(F)F)cc1Cl

>  <IC50_nM>
12

>  <Assay Description>
Displacement of [3H]-AD-5061 from human GST-tagged PPARgamma

$$$$
CHEMBL378068
Actelion Java MolfileCreator 2.0

  0  0  0  0  0  0              0 V3000
M  V30 BEGIN CTAB
M  V30 COUNTS 34 36 0 0 0
M  V30 BEGIN ATOM
M  V30 1 O 5.1961 1.5 0.0 0
M  V30 2 C 6.0621 1.0 0.0 0
M  V30 3 C 6.0621 0.0 0.0 0
M  V30 4 C 6.9282 1.5 0.0 0
M  V30 5 C 5.1961 -0.5 0.0 0
M  V30 6 C 6.9282 -0.4999 0.0 0
M  V30 7 C 7.7942 0.9999 0.0 0
M  V30 8 C 6.9282 2.4999 0.0 0
M  V30 9 O 4.3301 0.0 0.0 0
M  V30 10 C 5.1961 -1.4999 0.0 0
M  V30 11 C 6.9282 -1.4999 0.0 0
M  V30 12 C 8.6602 1.4999 0.0 0
M  V30 13 C 7.7942 2.9999 0.0 0
M  V30 14 C 3.4641 -0.5 0.0 0 CFG=2
M  V30 15 C 6.0621 -1.9999 0.0 0
M  V30 16 C 7.7942 -1.9999 0.0 0
M  V30 17 C 8.6602 2.4999 0.0 0
M  V30 18 C 2.598 0.0 0.0 0
M  V30 19 C 3.4641 -1.5 0.0 0
M  V30 20 C 8.6602 -1.4999 0.0 0
M  V30 21 C 1.732 -0.5 0.0 0
M  V30 22 O 0.866 0.0 0.0 0
M  V30 23 C 0.0 -0.5 0.0 0
M  V30 24 C -0.866 0.0 0.0 0
M  V30 25 C 0.0 -1.4999 0.0 0
M  V30 26 C -1.732 -0.4999 0.0 0
M  V30 27 C -0.866 -1.9999 0.0 0
M  V30 28 C -1.732 -1.4999 0.0 0
M  V30 29 C -2.598 0.0 0.0 0
M  V30 30 C -2.598 -1.9999 0.0 0
M  V30 31 C -2.598 -2.9999 0.0 0
M  V30 32 C -3.4641 -3.4999 0.0 0
M  V30 33 O -4.3301 -2.9999 0.0 0
M  V30 34 O -3.4641 -4.4999 0.0 0
M  V30 END ATOM
M  V30 BEGIN BOND
M  V30 1 2 1 2
M  V30 2 1 2 3
M  V30 3 1 2 4
M  V30 4 2 3 5
M  V30 5 1 3 6
M  V30 6 2 4 7
M  V30 7 1 4 8
M  V30 8 1 5 9
M  V30 9 1 5 10
M  V30 10 2 6 11
M  V30 11 1 7 12
M  V30 12 2 8 13
M  V30 13 1 9 14
M  V30 14 2 10 15
M  V30 15 1 11 16
M  V30 16 2 12 17
M  V30 17 1 14 18
M  V30 18 1 14 19 CFG=1
M  V30 19 1 16 20
M  V30 20 1 18 21
M  V30 21 1 21 22
M  V30 22 1 22 23
M  V30 23 2 23 24
M  V30 24 1 23 25
M  V30 25 1 24 26
M  V30 26 2 25 27
M  V30 27 2 26 28
M  V30 28 1 26 29
M  V30 29 1 28 30
M  V30 30 1 30 31
M  V30 31 1 31 32
M  V30 32 2 32 33
M  V30 33 1 32 34
M  V30 34 1 11 15
M  V30 35 1 13 17
M  V30 36 1 27 28
M  V30 END BOND
M  V30 BEGIN COLLECTION
M  V30 MDLV30/STERAC1 ATOMS=(1 14)
M  V30 END COLLECTION
M  V30 END CTAB
M  END
>  <Molecule ChEMBL ID>
CHEMBL378068

>  <Smiles>
CCc1ccc(OC(C)CCOc2ccc(CCC(=O)O)c(C)c2)c(C(=O)c2ccccc2)c1

>  <IC50_nM>
12

>  <Assay Description>
Displacement of [3H]2-methyl-2-(4-{3-[propyl-(5-pyridin-2-yl-thiophene-2-sulfonyl)-amino]-propyl}-phenoxy)-propionic acid from human PPARgamma by SPA

$$$$
CHEMBL2331773
Actelion Java MolfileCreator 2.0

  0  0  0  0  0  0              0 V3000
M  V30 BEGIN CTAB
M  V30 COUNTS 30 32 0 0 0
M  V30 BEGIN ATOM
M  V30 1 Cl 7.7942 -0.75 0.0 0
M  V30 2 C 6.4951 0.0 0.0 0
M  V30 3 C 6.4951 1.5 0.0 0
M  V30 4 C 5.1961 -0.75 0.0 0
M  V30 5 O 7.7942 2.25 0.0 0
M  V30 6 C 5.1961 2.25 0.0 0
M  V30 7 C 3.8971 0.0 0.0 0
M  V30 8 C 9.0932 1.5 0.0 0
M  V30 9 C 5.1961 3.75 0.0 0
M  V30 10 C 3.8971 1.5 0.0 0
M  V30 11 N 2.598 -0.75 0.0 0
M  V30 12 C 9.0932 0.0 0.0 0
M  V30 13 C 10.3923 2.25 0.0 0
M  V30 14 O 6.4951 4.5 0.0 0
M  V30 15 C 3.8971 4.5 0.0 0
M  V30 16 S 1.299 0.0 0.0 0
M  V30 17 N 10.3923 -0.75 0.0 0
M  V30 18 C 11.6913 1.5 0.0 0
M  V30 19 O 2.049 1.299 0.0 0
M  V30 20 O 0.549 1.299 0.0 0
M  V30 21 C 0.0 -0.75 0.0 0
M  V30 22 C 11.6913 0.0 0.0 0
M  V30 23 Cl 12.9903 2.25 0.0 0
M  V30 24 C -1.299 0.0 0.0 0
M  V30 25 C 0.0 -2.25 0.0 0
M  V30 26 Cl -1.299 1.5 0.0 0
M  V30 27 C -2.598 -0.75 0.0 0
M  V30 28 C -1.299 -3.0 0.0 0
M  V30 29 C -2.598 -2.25 0.0 0
M  V30 30 Cl -3.8971 -3.0 0.0 0
M  V30 END ATOM
M  V30 BEGIN BOND
M  V30 1 1 1 2
M  V30 2 2 2 3
M  V30 3 1 2 4
M  V30 4 1 3 5
M  V30 5 1 3 6
M  V30 6 2 4 7
M  V30 7 1 5 8
M  V30 8 1 6 9
M  V30 9 2 6 10
M  V30 10 1 7 11
M  V30 11 2 8 12
M  V30 12 1 8 13
M  V30 13 2 9 14
M  V30 14 1 9 15
M  V30 15 1 11 16
M  V30 16 1 12 17
M  V30 17 2 13 18
M  V30 18 2 16 19
M  V30 19 2 16 20
M  V30 20 1 16 21
M  V30 21 2 17 22
M  V30 22 1 18 23
M  V30 23 2 21 24
M  V30 24 1 21 25
M  V30 25 1 24 26
M  V30 26 1 24 27
M  V30 27 2 25 28
M  V30 28 2 27 29
M  V30 29 1 29 30
M  V30 30 1 7 10
M  V30 31 1 18 22
M  V30 32 1 28 29
M  V30 END BOND
M  V30 END CTAB
M  END
>  <Molecule ChEMBL ID>
CHEMBL2331773

>  <Smiles>
CC(=O)c1cc(NS(=O)(=O)c2ccc(Cl)cc2Cl)cc(Cl)c1Oc1cncc(Cl)c1

>  <IC50_nM>
12

>  <Assay Description>
Displacement of [3H]-rosiglitazone from GST-tagged PPARgammaLBD (unknown origin) after 1 hr by scintillation proximity assay

$$$$
CHEMBL3678128
Actelion Java MolfileCreator 2.0

  0  0  0  0  0  0              0 V3000
M  V30 BEGIN CTAB
M  V30 COUNTS 40 43 0 0 0
M  V30 BEGIN ATOM
M  V30 1 Cl 4.3301 0.9999 0.0 0
M  V30 2 C 4.3301 0.0 0.0 0
M  V30 3 C 3.4641 -0.5 0.0 0
M  V30 4 C 5.1961 -0.5 0.0 0
M  V30 5 O 2.598 0.0 0.0 0
M  V30 6 C 3.4641 -1.5 0.0 0
M  V30 7 C 5.1961 -1.5 0.0 0
M  V30 8 C 1.732 -0.5 0.0 0 CFG=2
M  V30 9 C 4.3301 -2.0 0.0 0
M  V30 10 C 0.866 0.0 0.0 0
M  V30 11 C 1.732 -1.5 0.0 0
M  V30 12 C 4.3301 -3.0 0.0 0
M  V30 13 O 0.866 1.0 0.0 0
M  V30 14 O 0.0 -0.5 0.0 0
M  V30 15 N 5.1961 -3.5 0.0 0
M  V30 16 C 5.3006 -4.4945 0.0 0
M  V30 17 C 6.1096 -3.0932 0.0 0
M  V30 18 C 6.2788 -4.7024 0.0 0
M  V30 19 C 4.6315 -5.2376 0.0 0
M  V30 20 C 6.7788 -3.8364 0.0 0
M  V30 21 C 6.3176 -2.1151 0.0 0
M  V30 22 C 6.5878 -5.6534 0.0 0
M  V30 23 C 4.9405 -6.1887 0.0 0
M  V30 24 C 7.7733 -3.7318 0.0 0
M  V30 25 C 5.9187 -6.3966 0.0 0
M  V30 26 C 6.2277 -7.3476 0.0 0
M  V30 27 O 5.5586 -8.0908 0.0 0
M  V30 28 N 7.2058 -7.5556 0.0 0
M  V30 29 C 7.5148 -8.5066 0.0 0 CFG=2
M  V30 30 C 6.8457 -9.2498 0.0 0
M  V30 31 C 8.493 -8.7145 0.0 0
M  V30 32 C 5.8676 -9.0418 0.0 0
M  V30 33 C 7.1547 -10.2008 0.0 0
M  V30 34 C 5.1984 -9.785 0.0 0
M  V30 35 C 6.4856 -10.944 0.0 0
M  V30 36 C 5.5075 -10.736 0.0 0
M  V30 37 C 4.8383 -11.4792 0.0 0
M  V30 38 C 5.5815 -12.1483 0.0 0
M  V30 39 C 4.1692 -12.2223 0.0 0
M  V30 40 C 4.0952 -10.8101 0.0 0
M  V30 END ATOM
M  V30 BEGIN BOND
M  V30 1 1 1 2
M  V30 2 2 2 3
M  V30 3 1 2 4
M  V30 4 1 3 5
M  V30 5 1 3 6
M  V30 6 2 4 7
M  V30 7 1 5 8
M  V30 8 2 6 9
M  V30 9 1 8 10
M  V30 10 1 8 11 CFG=1
M  V30 11 1 9 12
M  V30 12 2 10 13
M  V30 13 1 10 14
M  V30 14 1 12 15
M  V30 15 1 15 16
M  V30 16 1 15 17
M  V30 17 2 16 18
M  V30 18 1 16 19
M  V30 19 2 17 20
M  V30 20 1 17 21
M  V30 21 1 18 22
M  V30 22 2 19 23
M  V30 23 1 20 24
M  V30 24 2 22 25
M  V30 25 1 25 26
M  V30 26 2 26 27
M  V30 27 1 26 28
M  V30 28 1 28 29
M  V30 29 1 29 30
M  V30 30 1 29 31 CFG=1
M  V30 31 2 30 32
M  V30 32 1 30 33
M  V30 33 1 32 34
M  V30 34 2 33 35
M  V30 35 2 34 36
M  V30 36 1 36 37
M  V30 37 1 37 38
M  V30 38 1 37 39
M  V30 39 1 37 40
M  V30 40 1 7 9
M  V30 41 1 18 20
M  V30 42 1 23 25
M  V30 43 1 35 36
M  V30 END BOND
M  V30 BEGIN COLLECTION
M  V30 MDLV30/STEABS ATOMS=(2 8 29)
M  V30 END COLLECTION
M  V30 END CTAB
M  END
>  <Molecule ChEMBL ID>
CHEMBL3678128

>  <Smiles>
Cc1c(C)n(Cc2ccc(Cl)c(O[C@@H](C)C(=O)O)c2)c2ccc(C(=O)N[C@@H](C)c3ccc(C(C)(C)C)cc3)cc12

>  <IC50_nM>
12

>  <Assay Description>
Inverse agonist activity at human PPARgamma expressed in CHO cells co-expressing GAL4-NHR-LBD assessed as transcriptional repression preincubated for 6 hrs followed by luciferin addition by luminescence method

$$$$
CHEMBL121
Actelion Java MolfileCreator 2.0

  0  0  0  0  0  0              0 V3000
M  V30 BEGIN CTAB
M  V30 COUNTS 25 27 0 0 0
M  V30 BEGIN ATOM
M  V30 1 S 7.8987 0.0054 0.0 0
M  V30 2 C 8.8769 -0.2024 0.0 0
M  V30 3 C 7.7942 0.9999 0.0 0 CFG=2
M  V30 4 O 9.2836 -1.1159 0.0 0
M  V30 5 N 9.3769 0.6635 0.0 0
M  V30 6 C 8.7077 1.4067 0.0 0
M  V30 7 C 6.9282 1.4999 0.0 0
M  V30 8 O 8.9156 2.3848 0.0 0
M  V30 9 C 6.0621 0.9999 0.0 0
M  V30 10 C 5.1961 1.4999 0.0 0
M  V30 11 C 6.0621 0.0 0.0 0
M  V30 12 C 4.3301 0.9999 0.0 0
M  V30 13 C 5.1961 -0.5 0.0 0
M  V30 14 C 4.3301 0.0 0.0 0
M  V30 15 O 3.4641 -0.5 0.0 0
M  V30 16 C 2.598 0.0 0.0 0
M  V30 17 C 1.732 -0.5 0.0 0
M  V30 18 N 0.866 0.0 0.0 0
M  V30 19 C 0.866 1.0 0.0 0
M  V30 20 C 0.0 -0.5 0.0 0
M  V30 21 N 1.732 1.4999 0.0 0
M  V30 22 C 0.0 1.4999 0.0 0
M  V30 23 C 1.732 2.5 0.0 0
M  V30 24 C 0.0 2.5 0.0 0
M  V30 25 C 0.866 3.0 0.0 0
M  V30 END ATOM
M  V30 BEGIN BOND
M  V30 1 1 1 2
M  V30 2 1 1 3
M  V30 3 2 2 4
M  V30 4 1 2 5
M  V30 5 1 3 6
M  V30 6 1 3 7 CFG=1
M  V30 7 2 6 8
M  V30 8 1 7 9
M  V30 9 2 9 10
M  V30 10 1 9 11
M  V30 11 1 10 12
M  V30 12 2 11 13
M  V30 13 2 12 14
M  V30 14 1 14 15
M  V30 15 1 15 16
M  V30 16 1 16 17
M  V30 17 1 17 18
M  V30 18 1 18 19
M  V30 19 1 18 20
M  V30 20 2 19 21
M  V30 21 1 19 22
M  V30 22 1 21 23
M  V30 23 2 22 24
M  V30 24 2 23 25
M  V30 25 1 5 6
M  V30 26 1 13 14
M  V30 27 1 24 25
M  V30 END BOND
M  V30 BEGIN COLLECTION
M  V30 MDLV30/STERAC1 ATOMS=(1 3)
M  V30 END COLLECTION
M  V30 END CTAB
M  END
>  <Molecule ChEMBL ID>
CHEMBL121

>  <Smiles>
CN(CCOc1ccc(CC2SC(=O)NC2=O)cc1)c1ccccn1

>  <IC50_nM>
12

>  <Assay Description>
Binding affinity to human PPARgamma receptor by radioligand displacement assay

$$$$
CHEMBL236877
Actelion Java MolfileCreator 2.0

  0  0  0  0  0  0              0 V3000
M  V30 BEGIN CTAB
M  V30 COUNTS 36 38 0 0 0
M  V30 BEGIN ATOM
M  V30 1 Br 6.4951 1.5 0.0 0
M  V30 2 C 6.4951 0.0 0.0 0
M  V30 3 C 5.1961 -0.75 0.0 0
M  V30 4 C 7.7942 -0.75 0.0 0
M  V30 5 C 3.8971 0.0 0.0 0
M  V30 6 C 5.1961 -2.25 0.0 0
M  V30 7 C 7.7942 -2.25 0.0 0
M  V30 8 O 3.8971 1.5 0.0 0
M  V30 9 N 2.598 -0.75 0.0 0
M  V30 10 C 6.4951 -3.0 0.0 0
M  V30 11 C 9.0932 -3.0 0.0 0
M  V30 12 C 1.299 0.0 0.0 0
M  V30 13 F 9.8432 -1.7009 0.0 0
M  V30 14 F 10.3923 -3.75 0.0 0
M  V30 15 F 8.3432 -4.299 0.0 0
M  V30 16 C 0.0 -0.75 0.0 0
M  V30 17 C -1.299 0.0 0.0 0
M  V30 18 C 0.0 -2.25 0.0 0
M  V30 19 C -2.598 -0.75 0.0 0
M  V30 20 C -1.299 -3.0 0.0 0
M  V30 21 O -3.8971 0.0 0.0 0
M  V30 22 C -2.598 -2.25 0.0 0
M  V30 23 C -5.1961 -0.75 0.0 0
M  V30 24 C -6.4951 0.0 0.0 0
M  V30 25 C -5.1961 -2.25 0.0 0
M  V30 26 C -7.7942 -0.75 0.0 0
M  V30 27 C -6.4951 -3.0 0.0 0
M  V30 28 C -7.7942 -2.25 0.0 0
M  V30 29 C -9.0932 0.0 0.0 0
M  V30 30 O -9.0932 -3.0 0.0 0
M  V30 31 C -9.0932 -4.5 0.0 0
M  V30 32 C -10.3923 -5.25 0.0 0
M  V30 33 C -8.3433 -5.799 0.0 0
M  V30 34 C -7.5933 -4.4999 0.0 0
M  V30 35 O -11.6913 -4.5 0.0 0
M  V30 36 O -10.3923 -6.75 0.0 0
M  V30 END ATOM
M  V30 BEGIN BOND
M  V30 1 1 1 2
M  V30 2 2 2 3
M  V30 3 1 2 4
M  V30 4 1 3 5
M  V30 5 1 3 6
M  V30 6 2 4 7
M  V30 7 2 5 8
M  V30 8 1 5 9
M  V30 9 2 6 10
M  V30 10 1 7 11
M  V30 11 1 9 12
M  V30 12 1 11 13
M  V30 13 1 11 14
M  V30 14 1 11 15
M  V30 15 1 12 16
M  V30 16 2 16 17
M  V30 17 1 16 18
M  V30 18 1 17 19
M  V30 19 2 18 20
M  V30 20 1 19 21
M  V30 21 2 19 22
M  V30 22 1 21 23
M  V30 23 2 23 24
M  V30 24 1 23 25
M  V30 25 1 24 26
M  V30 26 2 25 27
M  V30 27 2 26 28
M  V30 28 1 26 29
M  V30 29 1 28 30
M  V30 30 1 30 31
M  V30 31 1 31 32
M  V30 32 1 31 33
M  V30 33 1 31 34
M  V30 34 2 32 35
M  V30 35 1 32 36
M  V30 36 1 7 10
M  V30 37 1 20 22
M  V30 38 1 27 28
M  V30 END BOND
M  V30 END CTAB
M  END
>  <Molecule ChEMBL ID>
CHEMBL236877

>  <Smiles>
Cc1cc(Oc2cccc(CNC(=O)c3ccc(C(F)(F)F)cc3Br)c2)ccc1OC(C)(C)C(=O)O

>  <IC50_nM>
12

>  <Assay Description>
Displacement of [3H]2-methyl-2-(4-{3-{propyl-(5-pyridin-2-yl-thiophene-2-sulfonyl)-amino}-propyl}-phenoxy)-propionic acid from human PPARgamma

$$$$
CHEMBL237277
Actelion Java MolfileCreator 2.0

  0  0  0  0  0  0              0 V3000
M  V30 BEGIN CTAB
M  V30 COUNTS 33 36 0 0 0
M  V30 BEGIN ATOM
M  V30 1 Cl 9.8201 -5.1517 0.0 0
M  V30 2 C 9.0701 -3.8526 0.0 0
M  V30 3 C 7.5701 -3.8526 0.0 0
M  V30 4 C 9.8201 -2.5536 0.0 0
M  V30 5 C 6.8201 -2.5536 0.0 0
M  V30 6 C 9.0701 -1.2546 0.0 0
M  V30 7 C 7.5701 -1.2546 0.0 0
M  V30 8 C 5.3529 -2.2417 0.0 0
M  V30 9 N 6.5664 -0.1398 0.0 0
M  V30 10 C 5.1961 -0.75 0.0 0
M  V30 11 C 3.8971 0.0 0.0 0
M  V30 12 O 3.8971 1.5 0.0 0
M  V30 13 N 2.598 -0.75 0.0 0
M  V30 14 C 1.299 0.0 0.0 0
M  V30 15 C 0.0 -0.75 0.0 0
M  V30 16 C -1.299 0.0 0.0 0
M  V30 17 C 0.0 -2.25 0.0 0
M  V30 18 C -2.598 -0.7499 0.0 0
M  V30 19 C -1.299 -2.9999 0.0 0
M  V30 20 O -3.8971 0.0 0.0 0
M  V30 21 C -2.598 -2.2499 0.0 0
M  V30 22 C -5.1961 -0.7499 0.0 0
M  V30 23 C -6.4951 0.0 0.0 0
M  V30 24 C -5.1961 -2.2499 0.0 0
M  V30 25 C -7.7942 -0.7499 0.0 0
M  V30 26 C -6.4951 -2.9999 0.0 0
M  V30 27 C -7.7942 -2.2499 0.0 0
M  V30 28 C -9.0932 0.0 0.0 0
M  V30 29 C -9.0932 -2.9999 0.0 0
M  V30 30 C -9.0932 -4.4999 0.0 0
M  V30 31 C -10.3923 -5.2499 0.0 0
M  V30 32 O -11.6913 -4.4999 0.0 0
M  V30 33 O -10.3923 -6.7499 0.0 0
M  V30 END ATOM
M  V30 BEGIN BOND
M  V30 1 1 1 2
M  V30 2 2 2 3
M  V30 3 1 2 4
M  V30 4 1 3 5
M  V30 5 2 4 6
M  V30 6 2 5 7
M  V30 7 1 5 8
M  V30 8 1 7 9
M  V30 9 2 8 10
M  V30 10 1 10 11
M  V30 11 2 11 12
M  V30 12 1 11 13
M  V30 13 1 13 14
M  V30 14 1 14 15
M  V30 15 2 15 16
M  V30 16 1 15 17
M  V30 17 1 16 18
M  V30 18 2 17 19
M  V30 19 1 18 20
M  V30 20 2 18 21
M  V30 21 1 20 22
M  V30 22 2 22 23
M  V30 23 1 22 24
M  V30 24 1 23 25
M  V30 25 2 24 26
M  V30 26 2 25 27
M  V30 27 1 25 28
M  V30 28 1 27 29
M  V30 29 1 29 30
M  V30 30 1 30 31
M  V30 31 2 31 32
M  V30 32 1 31 33
M  V30 33 1 6 7
M  V30 34 1 9 10
M  V30 35 1 19 21
M  V30 36 1 26 27
M  V30 END BOND
M  V30 END CTAB
M  END
>  <Molecule ChEMBL ID>
CHEMBL237277

>  <Smiles>
Cc1cc(Oc2cccc(CNC(=O)c3cc4cc(Cl)ccc4[nH]3)c2)ccc1CCC(=O)O

>  <IC50_nM>
13

>  <Assay Description>
Agonist activity at PPARgamma

$$$$
CHEMBL180504
Actelion Java MolfileCreator 2.0

  0  0  0  0  0  0              0 V3000
M  V30 BEGIN CTAB
M  V30 COUNTS 33 35 0 0 0
M  V30 BEGIN ATOM
M  V30 1 O 8.6602 -4.5 0.0 0
M  V30 2 C 8.6602 -3.5 0.0 0
M  V30 3 O 9.5262 -3.0 0.0 0
M  V30 4 C 7.7942 -3.0 0.0 0 CFG=1
M  V30 5 O 6.9282 -3.5 0.0 0
M  V30 6 C 7.7942 -2.0 0.0 0
M  V30 7 C 6.9282 -4.5 0.0 0
M  V30 8 C 6.9282 -1.5 0.0 0
M  V30 9 C 6.9282 -0.5 0.0 0
M  V30 10 C 6.0621 -2.0 0.0 0
M  V30 11 C 6.0621 0.0 0.0 0
M  V30 12 C 5.1961 -1.5 0.0 0
M  V30 13 O 6.0621 1.0 0.0 0
M  V30 14 C 5.1961 -0.5 0.0 0
M  V30 15 C 5.1961 1.5 0.0 0
M  V30 16 O 4.3301 0.0 0.0 0
M  V30 17 C 3.4641 -0.5 0.0 0
M  V30 18 C 2.598 0.0 0.0 0
M  V30 19 C 1.732 -0.5 0.0 0
M  V30 20 O 0.866 0.0 0.0 0
M  V30 21 C 0.0 -0.5 0.0 0
M  V30 22 C -0.866 0.0 0.0 0
M  V30 23 C 0.0 -1.4999 0.0 0
M  V30 24 C -1.732 -0.4999 0.0 0
M  V30 25 C -0.866 -1.9999 0.0 0
M  V30 26 C -1.732 -1.4999 0.0 0
M  V30 27 O -2.598 -1.9999 0.0 0
M  V30 28 C -2.598 -2.9999 0.0 0
M  V30 29 C -3.4641 -3.4999 0.0 0
M  V30 30 C -1.732 -3.4999 0.0 0
M  V30 31 C -3.4641 -4.4999 0.0 0
M  V30 32 C -1.732 -4.4999 0.0 0
M  V30 33 C -2.598 -4.9999 0.0 0
M  V30 END ATOM
M  V30 BEGIN BOND
M  V30 1 2 1 2
M  V30 2 1 2 3
M  V30 3 1 2 4
M  V30 4 1 4 5 CFG=1
M  V30 5 1 4 6
M  V30 6 1 5 7
M  V30 7 1 6 8
M  V30 8 2 8 9
M  V30 9 1 8 10
M  V30 10 1 9 11
M  V30 11 2 10 12
M  V30 12 1 11 13
M  V30 13 2 11 14
M  V30 14 1 13 15
M  V30 15 1 14 16
M  V30 16 1 16 17
M  V30 17 1 17 18
M  V30 18 1 18 19
M  V30 19 1 19 20
M  V30 20 1 20 21
M  V30 21 2 21 22
M  V30 22 1 21 23
M  V30 23 1 22 24
M  V30 24 2 23 25
M  V30 25 2 24 26
M  V30 26 1 26 27
M  V30 27 1 27 28
M  V30 28 2 28 29
M  V30 29 1 28 30
M  V30 30 1 29 31
M  V30 31 2 30 32
M  V30 32 2 31 33
M  V30 33 1 12 14
M  V30 34 1 25 26
M  V30 35 1 32 33
M  V30 END BOND
M  V30 BEGIN COLLECTION
M  V30 MDLV30/STEABS ATOMS=(1 4)
M  V30 END COLLECTION
M  V30 END CTAB
M  END
>  <Molecule ChEMBL ID>
CHEMBL180504

>  <Smiles>
COc1cc(C[C@H](OC)C(=O)O)ccc1OCCCOc1ccc(Oc2ccccc2)cc1

>  <IC50_nM>
13

>  <Assay Description>
Mean inhibitory concentration against human peroxisome proliferator-activated receptor gamma

$$$$
CHEMBL237277
Actelion Java MolfileCreator 2.0

  0  0  0  0  0  0              0 V3000
M  V30 BEGIN CTAB
M  V30 COUNTS 33 36 0 0 0
M  V30 BEGIN ATOM
M  V30 1 Cl 9.8201 -5.1517 0.0 0
M  V30 2 C 9.0701 -3.8526 0.0 0
M  V30 3 C 7.5701 -3.8526 0.0 0
M  V30 4 C 9.8201 -2.5536 0.0 0
M  V30 5 C 6.8201 -2.5536 0.0 0
M  V30 6 C 9.0701 -1.2546 0.0 0
M  V30 7 C 7.5701 -1.2546 0.0 0
M  V30 8 C 5.3529 -2.2417 0.0 0
M  V30 9 N 6.5664 -0.1398 0.0 0
M  V30 10 C 5.1961 -0.75 0.0 0
M  V30 11 C 3.8971 0.0 0.0 0
M  V30 12 O 3.8971 1.5 0.0 0
M  V30 13 N 2.598 -0.75 0.0 0
M  V30 14 C 1.299 0.0 0.0 0
M  V30 15 C 0.0 -0.75 0.0 0
M  V30 16 C -1.299 0.0 0.0 0
M  V30 17 C 0.0 -2.25 0.0 0
M  V30 18 C -2.598 -0.7499 0.0 0
M  V30 19 C -1.299 -2.9999 0.0 0
M  V30 20 O -3.8971 0.0 0.0 0
M  V30 21 C -2.598 -2.2499 0.0 0
M  V30 22 C -5.1961 -0.7499 0.0 0
M  V30 23 C -6.4951 0.0 0.0 0
M  V30 24 C -5.1961 -2.2499 0.0 0
M  V30 25 C -7.7942 -0.7499 0.0 0
M  V30 26 C -6.4951 -2.9999 0.0 0
M  V30 27 C -7.7942 -2.2499 0.0 0
M  V30 28 C -9.0932 0.0 0.0 0
M  V30 29 C -9.0932 -2.9999 0.0 0
M  V30 30 C -9.0932 -4.4999 0.0 0
M  V30 31 C -10.3923 -5.2499 0.0 0
M  V30 32 O -11.6913 -4.4999 0.0 0
M  V30 33 O -10.3923 -6.7499 0.0 0
M  V30 END ATOM
M  V30 BEGIN BOND
M  V30 1 1 1 2
M  V30 2 2 2 3
M  V30 3 1 2 4
M  V30 4 1 3 5
M  V30 5 2 4 6
M  V30 6 2 5 7
M  V30 7 1 5 8
M  V30 8 1 7 9
M  V30 9 2 8 10
M  V30 10 1 10 11
M  V30 11 2 11 12
M  V30 12 1 11 13
M  V30 13 1 13 14
M  V30 14 1 14 15
M  V30 15 2 15 16
M  V30 16 1 15 17
M  V30 17 1 16 18
M  V30 18 2 17 19
M  V30 19 1 18 20
M  V30 20 2 18 21
M  V30 21 1 20 22
M  V30 22 2 22 23
M  V30 23 1 22 24
M  V30 24 1 23 25
M  V30 25 2 24 26
M  V30 26 2 25 27
M  V30 27 1 25 28
M  V30 28 1 27 29
M  V30 29 1 29 30
M  V30 30 1 30 31
M  V30 31 2 31 32
M  V30 32 1 31 33
M  V30 33 1 6 7
M  V30 34 1 9 10
M  V30 35 1 19 21
M  V30 36 1 26 27
M  V30 END BOND
M  V30 END CTAB
M  END
>  <Molecule ChEMBL ID>
CHEMBL237277

>  <Smiles>
Cc1cc(Oc2cccc(CNC(=O)c3cc4cc(Cl)ccc4[nH]3)c2)ccc1CCC(=O)O

>  <IC50_nM>
13

>  <Assay Description>
Displacement of [3H]2-methyl-2-(4-{3-{propyl-(5-pyridin-2-yl-thiophene-2-sulfonyl)-amino}-propyl}-phenoxy)-propionic acid from human PPARgamma

$$$$
CHEMBL519351
Actelion Java MolfileCreator 2.0

  0  0  0  0  0  0              0 V3000
M  V30 BEGIN CTAB
M  V30 COUNTS 32 35 0 0 0
M  V30 BEGIN ATOM
M  V30 1 S 6.8053 -0.6691 0.0 0
M  V30 2 C 6.0621 0.0 0.0 0
M  V30 3 C 6.3985 -1.5826 0.0 0
M  V30 4 C 6.0621 0.9999 0.0 0
M  V30 5 C 5.1961 -0.5 0.0 0
M  V30 6 C 5.404 -1.4781 0.0 0
M  V30 7 O 6.9282 1.4999 0.0 0
M  V30 8 C 5.1961 1.4999 0.0 0
M  V30 9 C 4.3301 0.0 0.0 0
M  V30 10 C 6.9282 2.4999 0.0 0
M  V30 11 C 4.3301 0.9999 0.0 0
M  V30 12 C 3.4641 -0.5 0.0 0
M  V30 13 C 7.7942 2.9999 0.0 0
M  V30 14 C 2.598 0.0 0.0 0 CFG=2
M  V30 15 C 7.7942 3.9999 0.0 0
M  V30 16 O 1.732 -0.5 0.0 0
M  V30 17 C 2.598 1.0 0.0 0
M  V30 18 N 8.6032 4.5877 0.0 0
M  V30 19 C 6.9852 4.5877 0.0 0
M  V30 20 C 0.866 0.0 0.0 0
M  V30 21 O 3.4641 1.4999 0.0 0
M  V30 22 O 1.732 1.5 0.0 0
M  V30 23 C 8.2942 5.5388 0.0 0
M  V30 24 O 7.2942 5.5388 0.0 0
M  V30 25 C 6.0341 4.2787 0.0 0
M  V30 26 C 0.0 -0.5 0.0 0
M  V30 27 C 8.882 6.3478 0.0 0
M  V30 28 C 9.8765 6.2433 0.0 0
M  V30 29 C 8.4752 7.2614 0.0 0
M  V30 30 C 10.4643 7.0523 0.0 0
M  V30 31 C 9.063 8.0704 0.0 0
M  V30 32 C 10.0575 7.9658 0.0 0
M  V30 END ATOM
M  V30 BEGIN BOND
M  V30 1 1 1 2
M  V30 2 1 1 3
M  V30 3 2 2 4
M  V30 4 1 2 5
M  V30 5 2 3 6
M  V30 6 1 4 7
M  V30 7 1 4 8
M  V30 8 2 5 9
M  V30 9 1 7 10
M  V30 10 2 8 11
M  V30 11 1 9 12
M  V30 12 1 10 13
M  V30 13 1 12 14
M  V30 14 1 13 15
M  V30 15 1 14 16 CFG=3
M  V30 16 1 14 17
M  V30 17 1 15 18
M  V30 18 2 15 19
M  V30 19 1 16 20
M  V30 20 2 17 21
M  V30 21 1 17 22
M  V30 22 2 18 23
M  V30 23 1 19 24
M  V30 24 1 19 25
M  V30 25 1 20 26
M  V30 26 1 23 27
M  V30 27 2 27 28
M  V30 28 1 27 29
M  V30 29 1 28 30
M  V30 30 2 29 31
M  V30 31 2 30 32
M  V30 32 1 5 6
M  V30 33 1 9 11
M  V30 34 1 23 24
M  V30 35 1 31 32
M  V30 END BOND
M  V30 BEGIN COLLECTION
M  V30 MDLV30/STEABS ATOMS=(1 14)
M  V30 END COLLECTION
M  V30 END CTAB
M  END
>  <Molecule ChEMBL ID>
CHEMBL519351

>  <Smiles>
CCO[C@@H](Cc1ccc(OCCc2nc(-c3ccccc3)oc2C)c2sccc12)C(=O)O

>  <IC50_nM>
13

>  <Assay Description>
Displacement of radio labeled 2(S)-(2-benzoyl-phenylamino)-3-{4-[1,1-ditritio-2-(5-methyl-2-phenyl-oxazol-4-yl)-ethoxy]-phenyl}-propionic acid from GST-fused human PPARgamma expressed in Escherichia coli BL21 cells by scintillation proximity assay

$$$$
CHEMBL3695778
Actelion Java MolfileCreator 2.0

  0  0  0  0  0  0              0 V3000
M  V30 BEGIN CTAB
M  V30 COUNTS 40 44 0 0 0
M  V30 BEGIN ATOM
M  V30 1 O 11.8592 -3.5669 0.0 0
M  V30 2 C 10.8811 -3.7748 0.0 0
M  V30 3 O 10.212 -3.0316 0.0 0
M  V30 4 C 10.5721 -4.7258 0.0 0
M  V30 5 C 9.5939 -4.9337 0.0 0
M  V30 6 C 11.2412 -5.469 0.0 0
M  V30 7 C 8.9248 -4.1906 0.0 0
M  V30 8 C 9.2849 -5.8848 0.0 0
M  V30 9 C 10.9322 -6.42 0.0 0
M  V30 10 C 9.2338 -3.2395 0.0 0
M  V30 11 C 7.9466 -4.3985 0.0 0
M  V30 12 C 9.954 -6.6279 0.0 0
M  V30 13 C 8.5647 -2.4964 0.0 0
M  V30 14 C 7.2775 -3.6554 0.0 0
M  V30 15 C 7.5865 -2.7043 0.0 0
M  V30 16 C 6.9174 -1.9612 0.0 0
M  V30 17 N 5.9392 -2.1691 0.0 0
M  V30 18 C 5.1961 -1.4999 0.0 0
M  V30 19 C 5.5325 -3.0826 0.0 0
M  V30 20 C 4.3301 -1.9999 0.0 0
M  V30 21 C 5.1961 -0.4999 0.0 0
M  V30 22 C 4.538 -2.9781 0.0 0
M  V30 23 C 6.0325 -3.9487 0.0 0
M  V30 24 C 3.4641 -1.5 0.0 0
M  V30 25 C 4.3301 0.0 0.0 0
M  V30 26 C 3.8689 -3.7212 0.0 0
M  V30 27 C 3.4641 -0.5 0.0 0
M  V30 28 C 2.598 0.0 0.0 0
M  V30 29 O 2.598 1.0 0.0 0
M  V30 30 N 1.732 -0.5 0.0 0
M  V30 31 C 0.866 0.0 0.0 0 CFG=2
M  V30 32 C 0.866 1.0 0.0 0
M  V30 33 C 0.0 -0.5 0.0 0
M  V30 34 C 1.732 1.5 0.0 0
M  V30 35 C 0.0 1.4999 0.0 0
M  V30 36 C 1.732 2.5 0.0 0
M  V30 37 C 0.0 2.5 0.0 0
M  V30 38 O 2.598 3.0 0.0 0
M  V30 39 C 0.866 2.9999 0.0 0
M  V30 40 C 2.598 4.0 0.0 0
M  V30 END ATOM
M  V30 BEGIN BOND
M  V30 1 2 1 2
M  V30 2 1 2 3
M  V30 3 1 2 4
M  V30 4 2 4 5
M  V30 5 1 4 6
M  V30 6 1 5 7
M  V30 7 1 5 8
M  V30 8 2 6 9
M  V30 9 2 7 10
M  V30 10 1 7 11
M  V30 11 2 8 12
M  V30 12 1 10 13
M  V30 13 2 11 14
M  V30 14 2 13 15
M  V30 15 1 15 16
M  V30 16 1 16 17
M  V30 17 1 17 18
M  V30 18 1 17 19
M  V30 19 2 18 20
M  V30 20 1 18 21
M  V30 21 2 19 22
M  V30 22 1 19 23
M  V30 23 1 20 24
M  V30 24 2 21 25
M  V30 25 1 22 26
M  V30 26 2 24 27
M  V30 27 1 27 28
M  V30 28 2 28 29
M  V30 29 1 28 30
M  V30 30 1 30 31
M  V30 31 1 31 32
M  V30 32 1 31 33 CFG=1
M  V30 33 2 32 34
M  V30 34 1 32 35
M  V30 35 1 34 36
M  V30 36 2 35 37
M  V30 37 1 36 38
M  V30 38 2 36 39
M  V30 39 1 38 40
M  V30 40 1 9 12
M  V30 41 1 14 15
M  V30 42 1 20 22
M  V30 43 1 25 27
M  V30 44 1 37 39
M  V30 END BOND
M  V30 BEGIN COLLECTION
M  V30 MDLV30/STEABS ATOMS=(1 31)
M  V30 END COLLECTION
M  V30 END CTAB
M  END
>  <Molecule ChEMBL ID>
CHEMBL3695778

>  <Smiles>
COc1cccc([C@H](C)NC(=O)c2ccc3c(c2)c(C)c(C)n3Cc2ccc(-c3ccccc3C(=O)O)cc2)c1

>  <IC50_nM>
13

>  <Assay Description>
Lanthascreen Competitive Binding Assay: The assay was performed according to manufacturer protocol. A mixture of nM GST-PPARG-LBD, 5 nM Tb-GST-antibody, 5 nM Fluormone Pan-PPAR Green, and serial dilutions of the experimental compound, beginning at 10 ׬M downwards, was added to wells of black 384-well low-volume plates (Greiner) to a total volume of 18 ׬L. All dilutions were made in TR-FRET assay buffer C. DMSO at 2% final concentration was used as a no-ligand control. Experiment was performed in triplicate, and incubated for 2 hours in the dark prior to assay read in Perkin Elmer ViewLux ultra HTS microplate reader. FRET signal was measured by excitation at 340 nm and emission at 520 nm for fluorescein and 490 nm for terbium. Fold change over DMSO was calculated using GraphPad Prism Software (La Jolla, Calif.) by calculating 520 nm/490 nm ratio. Graphs were plotted as fold change of FRET signal for compound treatment over DMSO-only control.

$$$$
CHEMBL181656
Actelion Java MolfileCreator 2.0

  0  0  0  0  0  0              0 V3000
M  V30 BEGIN CTAB
M  V30 COUNTS 31 33 0 0 0
M  V30 BEGIN ATOM
M  V30 1 O 3.4641 -0.5 0.0 0
M  V30 2 C 2.598 0.0 0.0 0
M  V30 3 O 2.598 1.0 0.0 0
M  V30 4 C 1.732 -0.5 0.0 0 CFG=1
M  V30 5 O 1.732 -1.5 0.0 0
M  V30 6 C 0.866 0.0 0.0 0
M  V30 7 C 2.598 -1.9999 0.0 0
M  V30 8 C 0.0 -0.5 0.0 0
M  V30 9 C -0.866 0.0 0.0 0
M  V30 10 C 0.0 -1.4999 0.0 0
M  V30 11 C -1.732 -0.4999 0.0 0
M  V30 12 C -0.866 -1.9999 0.0 0
M  V30 13 C -1.732 -1.4999 0.0 0
M  V30 14 C -2.598 -1.9999 0.0 0
M  V30 15 C -3.4641 -2.4999 0.0 0
M  V30 16 C -4.3301 -2.9999 0.0 0
M  V30 17 C -4.3301 -3.9999 0.0 0
M  V30 18 O -5.1961 -4.4999 0.0 0
M  V30 19 C -5.1961 -5.4999 0.0 0
M  V30 20 C -6.0621 -5.9999 0.0 0
M  V30 21 C -4.3301 -5.9999 0.0 0
M  V30 22 C -6.0621 -6.9999 0.0 0
M  V30 23 C -4.3301 -6.9999 0.0 0
M  V30 24 C -5.1961 -7.4999 0.0 0
M  V30 25 O -5.1961 -8.4999 0.0 0
M  V30 26 C -4.3301 -8.9999 0.0 0
M  V30 27 C -4.3301 -9.9999 0.0 0
M  V30 28 C -3.4641 -8.4999 0.0 0
M  V30 29 C -3.4641 -10.5 0.0 0
M  V30 30 C -2.598 -9.0 0.0 0
M  V30 31 C -2.598 -10.0 0.0 0
M  V30 END ATOM
M  V30 BEGIN BOND
M  V30 1 2 1 2
M  V30 2 1 2 3
M  V30 3 1 2 4
M  V30 4 1 4 5 CFG=1
M  V30 5 1 4 6
M  V30 6 1 5 7
M  V30 7 1 6 8
M  V30 8 2 8 9
M  V30 9 1 8 10
M  V30 10 1 9 11
M  V30 11 2 10 12
M  V30 12 2 11 13
M  V30 13 1 13 14
M  V30 14 3 14 15
M  V30 15 1 15 16
M  V30 16 1 16 17
M  V30 17 1 17 18
M  V30 18 1 18 19
M  V30 19 2 19 20
M  V30 20 1 19 21
M  V30 21 1 20 22
M  V30 22 2 21 23
M  V30 23 2 22 24
M  V30 24 1 24 25
M  V30 25 1 25 26
M  V30 26 2 26 27
M  V30 27 1 26 28
M  V30 28 1 27 29
M  V30 29 2 28 30
M  V30 30 2 29 31
M  V30 31 1 12 13
M  V30 32 1 23 24
M  V30 33 1 30 31
M  V30 END BOND
M  V30 BEGIN COLLECTION
M  V30 MDLV30/STEABS ATOMS=(1 4)
M  V30 END COLLECTION
M  V30 END CTAB
M  END
>  <Molecule ChEMBL ID>
CHEMBL181656

>  <Smiles>
CO[C@@H](Cc1ccc(C#CCCOc2ccc(Oc3ccccc3)cc2)cc1)C(=O)O

>  <IC50_nM>
13

>  <Assay Description>
Mean inhibitory concentration against human peroxisome proliferator-activated receptor gamma

$$$$
CHEMBL3695844
Actelion Java MolfileCreator 2.0

  0  0  0  0  0  0              0 V3000
M  V30 BEGIN CTAB
M  V30 COUNTS 40 44 0 0 0
M  V30 BEGIN ATOM
M  V30 1 F 4.3301 -2.9999 0.0 0
M  V30 2 C 4.3301 -1.9999 0.0 0
M  V30 3 C 5.1961 -1.5 0.0 0
M  V30 4 C 3.4641 -1.5 0.0 0
M  V30 5 O 6.0621 -2.0 0.0 0
M  V30 6 C 5.1961 -0.5 0.0 0
M  V30 7 C 3.4641 -0.5 0.0 0
M  V30 8 C 6.9282 -1.5 0.0 0
M  V30 9 C 4.3301 0.0 0.0 0
M  V30 10 C 2.598 0.0 0.0 0
M  V30 11 N 1.732 -0.5 0.0 0
M  V30 12 C 0.866 0.0 0.0 0
M  V30 13 O 0.866 1.0 0.0 0
M  V30 14 C 0.0 -0.5 0.0 0
M  V30 15 C 0.0 -1.4999 0.0 0
M  V30 16 C -0.866 0.0 0.0 0
M  V30 17 C -0.866 -1.9999 0.0 0
M  V30 18 C -1.732 -0.4999 0.0 0
M  V30 19 C -1.732 -1.4999 0.0 0
M  V30 20 C -1.0739 -2.9781 0.0 0
M  V30 21 N -2.4751 -2.1691 0.0 0
M  V30 22 C -2.0684 -3.0826 0.0 0
M  V30 23 C -0.4048 -3.7212 0.0 0
M  V30 24 C -3.4533 -1.9612 0.0 0
M  V30 25 C -2.5684 -3.9487 0.0 0
M  V30 26 C -4.1224 -2.7043 0.0 0
M  V30 27 C -5.1006 -2.4964 0.0 0
M  V30 28 C -3.8134 -3.6554 0.0 0
M  V30 29 C -5.7697 -3.2395 0.0 0
M  V30 30 C -4.4825 -4.3985 0.0 0
M  V30 31 C -5.4607 -4.1906 0.0 0
M  V30 32 C -6.1298 -4.9337 0.0 0
M  V30 33 C -7.108 -4.7258 0.0 0
M  V30 34 C -5.8208 -5.8848 0.0 0
M  V30 35 C -7.417 -3.7748 0.0 0
M  V30 36 C -7.7771 -5.469 0.0 0
M  V30 37 C -6.4899 -6.6279 0.0 0
M  V30 38 O -6.7478 -3.0316 0.0 0
M  V30 39 O -8.3951 -3.5669 0.0 0
M  V30 40 C -7.4681 -6.42 0.0 0
M  V30 END ATOM
M  V30 BEGIN BOND
M  V30 1 1 1 2
M  V30 2 2 2 3
M  V30 3 1 2 4
M  V30 4 1 3 5
M  V30 5 1 3 6
M  V30 6 2 4 7
M  V30 7 1 5 8
M  V30 8 2 6 9
M  V30 9 1 7 10
M  V30 10 1 10 11
M  V30 11 1 11 12
M  V30 12 2 12 13
M  V30 13 1 12 14
M  V30 14 2 14 15
M  V30 15 1 14 16
M  V30 16 1 15 17
M  V30 17 2 16 18
M  V30 18 2 17 19
M  V30 19 1 17 20
M  V30 20 1 19 21
M  V30 21 2 20 22
M  V30 22 1 20 23
M  V30 23 1 21 24
M  V30 24 1 22 25
M  V30 25 1 24 26
M  V30 26 2 26 27
M  V30 27 1 26 28
M  V30 28 1 27 29
M  V30 29 2 28 30
M  V30 30 2 29 31
M  V30 31 1 31 32
M  V30 32 2 32 33
M  V30 33 1 32 34
M  V30 34 1 33 35
M  V30 35 1 33 36
M  V30 36 2 34 37
M  V30 37 2 35 38
M  V30 38 1 35 39
M  V30 39 2 36 40
M  V30 40 1 7 9
M  V30 41 1 18 19
M  V30 42 1 21 22
M  V30 43 1 30 31
M  V30 44 1 37 40
M  V30 END BOND
M  V30 END CTAB
M  END
>  <Molecule ChEMBL ID>
CHEMBL3695844

>  <Smiles>
COc1ccc(CNC(=O)c2ccc3c(c2)c(C)c(C)n3Cc2ccc(-c3ccccc3C(=O)O)cc2)cc1F

>  <IC50_nM>
13

>  <Assay Description>
Lanthascreen Competitive Binding Assay: The assay was performed according to manufacturer protocol. A mixture of nM GST-PPARG-LBD, 5 nM Tb-GST-antibody, 5 nM Fluormone Pan-PPAR Green, and serial dilutions of the experimental compound, beginning at 10 ׬M downwards, was added to wells of black 384-well low-volume plates (Greiner) to a total volume of 18 ׬L. All dilutions were made in TR-FRET assay buffer C. DMSO at 2% final concentration was used as a no-ligand control. Experiment was performed in triplicate, and incubated for 2 hours in the dark prior to assay read in Perkin Elmer ViewLux ultra HTS microplate reader. FRET signal was measured by excitation at 340 nm and emission at 520 nm for fluorescein and 490 nm for terbium. Fold change over DMSO was calculated using GraphPad Prism Software (La Jolla, Calif.) by calculating 520 nm/490 nm ratio. Graphs were plotted as fold change of FRET signal for compound treatment over DMSO-only control.

$$$$
CHEMBL370648
Actelion Java MolfileCreator 2.0

  0  0  0  0  0  0              0 V3000
M  V30 BEGIN CTAB
M  V30 COUNTS 35 38 0 0 0
M  V30 BEGIN ATOM
M  V30 1 Cl 4.3301 -1.9999 0.0 0
M  V30 2 C 3.4641 -1.4999 0.0 0
M  V30 3 C 3.4641 -0.5 0.0 0
M  V30 4 C 2.598 -1.9999 0.0 0
M  V30 5 C 2.598 0.0 0.0 0
M  V30 6 C 4.3301 0.0 0.0 0
M  V30 7 C 1.732 -1.5 0.0 0
M  V30 8 C 1.732 -0.5 0.0 0
M  V30 9 F 3.8301 0.866 0.0 0
M  V30 10 F 5.1961 0.4999 0.0 0
M  V30 11 F 4.8301 -0.866 0.0 0
M  V30 12 O 0.866 0.0 0.0 0
M  V30 13 C 0.0 -0.5 0.0 0
M  V30 14 C -0.9135 -0.0932 0.0 0
M  V30 15 C -0.1045 -1.4945 0.0 0
M  V30 16 N -1.5826 -0.8364 0.0 0
M  V30 17 C -1.1214 0.8848 0.0 0
M  V30 18 C -1.0826 -1.7024 0.0 0
M  V30 19 C 0.5646 -2.2376 0.0 0
M  V30 20 C -2.5771 -0.7318 0.0 0
M  V30 21 O -0.3783 1.554 0.0 0
M  V30 22 O -2.0725 1.1939 0.0 0
M  V30 23 C -1.3916 -2.6534 0.0 0
M  V30 24 C 0.2555 -3.1887 0.0 0
M  V30 25 C -2.9839 0.1816 0.0 0
M  V30 26 C -3.1649 -1.5408 0.0 0
M  V30 27 C -0.7225 -3.3966 0.0 0
M  V30 28 Cl 0.9247 -3.9318 0.0 0
M  V30 29 C -3.9784 0.2861 0.0 0
M  V30 30 C -4.1595 -1.4363 0.0 0
M  V30 31 C -4.5662 -0.5228 0.0 0
M  V30 32 C -5.5607 -0.4182 0.0 0
M  V30 33 C -5.6652 -1.4128 0.0 0
M  V30 34 C -6.5552 -0.3137 0.0 0
M  V30 35 C -5.4562 0.5762 0.0 0
M  V30 END ATOM
M  V30 BEGIN BOND
M  V30 1 1 1 2
M  V30 2 2 2 3
M  V30 3 1 2 4
M  V30 4 1 3 5
M  V30 5 1 3 6
M  V30 6 2 4 7
M  V30 7 2 5 8
M  V30 8 1 6 9
M  V30 9 1 6 10
M  V30 10 1 6 11
M  V30 11 1 8 12
M  V30 12 1 12 13
M  V30 13 2 13 14
M  V30 14 1 13 15
M  V30 15 1 14 16
M  V30 16 1 14 17
M  V30 17 2 15 18
M  V30 18 1 15 19
M  V30 19 1 16 20
M  V30 20 2 17 21
M  V30 21 1 17 22
M  V30 22 1 18 23
M  V30 23 2 19 24
M  V30 24 2 20 25
M  V30 25 1 20 26
M  V30 26 2 23 27
M  V30 27 1 24 28
M  V30 28 1 25 29
M  V30 29 2 26 30
M  V30 30 2 29 31
M  V30 31 1 31 32
M  V30 32 1 32 33
M  V30 33 1 32 34
M  V30 34 1 32 35
M  V30 35 1 7 8
M  V30 36 1 16 18
M  V30 37 1 24 27
M  V30 38 1 30 31
M  V30 END BOND
M  V30 END CTAB
M  END
>  <Molecule ChEMBL ID>
CHEMBL370648

>  <Smiles>
CC(C)(C)c1ccc(-n2c(C(=O)O)c(Oc3ccc(Cl)c(C(F)(F)F)c3)c3cc(Cl)ccc32)cc1

>  <IC50_nM>
13

>  <Assay Description>
Inhibitory concentration against human peroxisome proliferator activated receptor gamma in SPA assay

$$$$
CHEMBL3695900
Actelion Java MolfileCreator 2.0

  0  0  0  0  0  0              0 V3000
M  V30 BEGIN CTAB
M  V30 COUNTS 36 40 0 0 0
M  V30 BEGIN ATOM
M  V30 1 O 1.732 -0.5 0.0 0
M  V30 2 C 2.598 0.0 0.0 0
M  V30 3 N 3.4641 -0.4999 0.0 0
M  V30 4 C 2.598 1.0 0.0 0
M  V30 5 C 4.3301 0.0 0.0 0 CFG=2
M  V30 6 C 1.732 1.4999 0.0 0
M  V30 7 C 3.4641 1.5 0.0 0
M  V30 8 C 5.1961 -0.4999 0.0 0
M  V30 9 C 4.3301 1.0 0.0 0
M  V30 10 C 1.732 2.4999 0.0 0
M  V30 11 C 3.4641 2.5 0.0 0
M  V30 12 C 5.1961 -1.4999 0.0 0
M  V30 13 C 6.0621 0.0 0.0 0
M  V30 14 C 2.598 3.0 0.0 0
M  V30 15 C 0.9889 3.1691 0.0 0
M  V30 16 C 6.0621 -1.9999 0.0 0
M  V30 17 C 6.9282 -0.4999 0.0 0
M  V30 18 N 2.3901 3.9781 0.0 0
M  V30 19 C 1.3956 4.0826 0.0 0
M  V30 20 C 0.0107 2.9612 0.0 0
M  V30 21 C 6.9282 -1.4999 0.0 0
M  V30 22 C 3.0592 4.7212 0.0 0
M  V30 23 C 0.8956 4.9487 0.0 0
M  V30 24 C 7.7942 -1.9999 0.0 0
M  V30 25 C 2.7502 5.6723 0.0 0
M  V30 26 C 3.4194 6.4154 0.0 0
M  V30 27 C 1.7721 5.8802 0.0 0
M  V30 28 C 3.1103 7.3665 0.0 0
M  V30 29 C 1.4631 6.8313 0.0 0
M  V30 30 C 2.1322 7.5744 0.0 0
M  V30 31 C 1.8232 8.5255 0.0 0
M  V30 32 C 2.4923 9.2686 0.0 0
M  V30 33 C 0.845 8.7334 0.0 0
M  V30 34 C 2.1833 10.2197 0.0 0
M  V30 35 C 0.536 9.6844 0.0 0
M  V30 36 C 1.2051 10.4276 0.0 0
M  V30 END ATOM
M  V30 BEGIN BOND
M  V30 1 2 1 2
M  V30 2 1 2 3
M  V30 3 1 2 4
M  V30 4 1 3 5
M  V30 5 2 4 6
M  V30 6 1 4 7
M  V30 7 1 5 8
M  V30 8 1 5 9 CFG=1
M  V30 9 1 6 10
M  V30 10 2 7 11
M  V30 11 2 8 12
M  V30 12 1 8 13
M  V30 13 2 10 14
M  V30 14 1 10 15
M  V30 15 1 12 16
M  V30 16 2 13 17
M  V30 17 1 14 18
M  V30 18 2 15 19
M  V30 19 1 15 20
M  V30 20 2 16 21
M  V30 21 1 18 22
M  V30 22 1 19 23
M  V30 23 1 21 24
M  V30 24 1 22 25
M  V30 25 2 25 26
M  V30 26 1 25 27
M  V30 27 1 26 28
M  V30 28 2 27 29
M  V30 29 2 28 30
M  V30 30 1 30 31
M  V30 31 2 31 32
M  V30 32 1 31 33
M  V30 33 1 32 34
M  V30 34 2 33 35
M  V30 35 2 34 36
M  V30 36 1 11 14
M  V30 37 1 17 21
M  V30 38 1 18 19
M  V30 39 1 29 30
M  V30 40 1 35 36
M  V30 END BOND
M  V30 BEGIN COLLECTION
M  V30 MDLV30/STEABS ATOMS=(1 5)
M  V30 END COLLECTION
M  V30 END CTAB
M  END
>  <Molecule ChEMBL ID>
CHEMBL3695900

>  <Smiles>
Cc1ccc([C@H](C)NC(=O)c2ccc3c(c2)c(C)c(C)n3Cc2ccc(-c3ccccc3)cc2)cc1

>  <IC50_nM>
13

>  <Assay Description>
Lanthascreen Competitive Binding Assay: The assay was performed according to manufacturer protocol. A mixture of nM GST-PPARG-LBD, 5 nM Tb-GST-antibody, 5 nM Fluormone Pan-PPAR Green, and serial dilutions of the experimental compound, beginning at 10 ׬M downwards, was added to wells of black 384-well low-volume plates (Greiner) to a total volume of 18 ׬L. All dilutions were made in TR-FRET assay buffer C. DMSO at 2% final concentration was used as a no-ligand control. Experiment was performed in triplicate, and incubated for 2 hours in the dark prior to assay read in Perkin Elmer ViewLux ultra HTS microplate reader. FRET signal was measured by excitation at 340 nm and emission at 520 nm for fluorescein and 490 nm for terbium. Fold change over DMSO was calculated using GraphPad Prism Software (La Jolla, Calif.) by calculating 520 nm/490 nm ratio. Graphs were plotted as fold change of FRET signal for compound treatment over DMSO-only control.

$$$$
CHEMBL387023
Actelion Java MolfileCreator 2.0

  0  0  0  0  0  0              0 V3000
M  V30 BEGIN CTAB
M  V30 COUNTS 33 36 0 0 0
M  V30 BEGIN ATOM
M  V30 1 O 4.3301 0.0 0.0 0
M  V30 2 C 3.4641 -0.5 0.0 0
M  V30 3 O 3.4641 -1.5 0.0 0
M  V30 4 C 2.598 0.0 0.0 0 CFG=1
M  V30 5 O 1.732 -0.5 0.0 0
M  V30 6 C 2.598 1.0 0.0 0
M  V30 7 C 0.866 0.0 0.0 0
M  V30 8 C 1.732 1.5 0.0 0
M  V30 9 C 0.0 -0.5 0.0 0
M  V30 10 C 0.866 1.0 0.0 0
M  V30 11 C 1.732 2.5 0.0 0
M  V30 12 C 0.0 1.5 0.0 0
M  V30 13 C 0.866 3.0 0.0 0
M  V30 14 C 0.0 2.5 0.0 0
M  V30 15 C -0.951 1.1909 0.0 0
M  V30 16 N -0.951 2.809 0.0 0
M  V30 17 C -1.5388 2.0 0.0 0
M  V30 18 C -1.26 3.76 0.0 0
M  V30 19 C -2.2382 3.9679 0.0 0
M  V30 20 N -2.6449 4.8815 0.0 0
M  V30 21 C -2.9813 3.2988 0.0 0
M  V30 22 C -3.6394 4.777 0.0 0
M  V30 23 O -3.8473 3.7988 0.0 0
M  V30 24 C -2.8768 2.3043 0.0 0
M  V30 25 C -4.3086 5.5201 0.0 0
M  V30 26 C -3.9995 6.4712 0.0 0
M  V30 27 C -5.2867 5.3122 0.0 0
M  V30 28 C -4.6687 7.2143 0.0 0
M  V30 29 C -5.9558 6.0553 0.0 0
M  V30 30 C -5.6468 7.0064 0.0 0
M  V30 31 C -6.316 7.7495 0.0 0
M  V30 32 C -6.0069 8.7006 0.0 0
M  V30 33 C -7.2941 7.5416 0.0 0
M  V30 END ATOM
M  V30 BEGIN BOND
M  V30 1 2 1 2
M  V30 2 1 2 3
M  V30 3 1 2 4
M  V30 4 1 4 5 CFG=1
M  V30 5 1 4 6
M  V30 6 1 5 7
M  V30 7 1 6 8
M  V30 8 1 7 9
M  V30 9 2 8 10
M  V30 10 1 8 11
M  V30 11 1 10 12
M  V30 12 2 11 13
M  V30 13 2 12 14
M  V30 14 1 12 15
M  V30 15 1 14 16
M  V30 16 2 15 17
M  V30 17 1 16 18
M  V30 18 1 18 19
M  V30 19 1 19 20
M  V30 20 2 19 21
M  V30 21 2 20 22
M  V30 22 1 21 23
M  V30 23 1 21 24
M  V30 24 1 22 25
M  V30 25 2 25 26
M  V30 26 1 25 27
M  V30 27 1 26 28
M  V30 28 2 27 29
M  V30 29 2 28 30
M  V30 30 1 30 31
M  V30 31 1 31 32
M  V30 32 1 31 33
M  V30 33 1 13 14
M  V30 34 1 16 17
M  V30 35 1 22 23
M  V30 36 1 29 30
M  V30 END BOND
M  V30 BEGIN COLLECTION
M  V30 MDLV30/STERAC1 ATOMS=(1 4)
M  V30 END COLLECTION
M  V30 END CTAB
M  END
>  <Molecule ChEMBL ID>
CHEMBL387023

>  <Smiles>
CCOC(Cc1ccc2c(ccn2Cc2nc(-c3ccc(C(C)C)cc3)oc2C)c1)C(=O)O

>  <IC50_nM>
13

>  <Assay Description>
Binding affinity to PPARgamma by radio ligand binding assay

$$$$
CHEMBL180504
Actelion Java MolfileCreator 2.0

  0  0  0  0  0  0              0 V3000
M  V30 BEGIN CTAB
M  V30 COUNTS 33 35 0 0 0
M  V30 BEGIN ATOM
M  V30 1 O 8.6602 -4.5 0.0 0
M  V30 2 C 8.6602 -3.5 0.0 0
M  V30 3 O 9.5262 -3.0 0.0 0
M  V30 4 C 7.7942 -3.0 0.0 0 CFG=1
M  V30 5 O 6.9282 -3.5 0.0 0
M  V30 6 C 7.7942 -2.0 0.0 0
M  V30 7 C 6.9282 -4.5 0.0 0
M  V30 8 C 6.9282 -1.5 0.0 0
M  V30 9 C 6.9282 -0.5 0.0 0
M  V30 10 C 6.0621 -2.0 0.0 0
M  V30 11 C 6.0621 0.0 0.0 0
M  V30 12 C 5.1961 -1.5 0.0 0
M  V30 13 O 6.0621 1.0 0.0 0
M  V30 14 C 5.1961 -0.5 0.0 0
M  V30 15 C 5.1961 1.5 0.0 0
M  V30 16 O 4.3301 0.0 0.0 0
M  V30 17 C 3.4641 -0.5 0.0 0
M  V30 18 C 2.598 0.0 0.0 0
M  V30 19 C 1.732 -0.5 0.0 0
M  V30 20 O 0.866 0.0 0.0 0
M  V30 21 C 0.0 -0.5 0.0 0
M  V30 22 C -0.866 0.0 0.0 0
M  V30 23 C 0.0 -1.4999 0.0 0
M  V30 24 C -1.732 -0.4999 0.0 0
M  V30 25 C -0.866 -1.9999 0.0 0
M  V30 26 C -1.732 -1.4999 0.0 0
M  V30 27 O -2.598 -1.9999 0.0 0
M  V30 28 C -2.598 -2.9999 0.0 0
M  V30 29 C -3.4641 -3.4999 0.0 0
M  V30 30 C -1.732 -3.4999 0.0 0
M  V30 31 C -3.4641 -4.4999 0.0 0
M  V30 32 C -1.732 -4.4999 0.0 0
M  V30 33 C -2.598 -4.9999 0.0 0
M  V30 END ATOM
M  V30 BEGIN BOND
M  V30 1 2 1 2
M  V30 2 1 2 3
M  V30 3 1 2 4
M  V30 4 1 4 5 CFG=1
M  V30 5 1 4 6
M  V30 6 1 5 7
M  V30 7 1 6 8
M  V30 8 2 8 9
M  V30 9 1 8 10
M  V30 10 1 9 11
M  V30 11 2 10 12
M  V30 12 1 11 13
M  V30 13 2 11 14
M  V30 14 1 13 15
M  V30 15 1 14 16
M  V30 16 1 16 17
M  V30 17 1 17 18
M  V30 18 1 18 19
M  V30 19 1 19 20
M  V30 20 1 20 21
M  V30 21 2 21 22
M  V30 22 1 21 23
M  V30 23 1 22 24
M  V30 24 2 23 25
M  V30 25 2 24 26
M  V30 26 1 26 27
M  V30 27 1 27 28
M  V30 28 2 28 29
M  V30 29 1 28 30
M  V30 30 1 29 31
M  V30 31 2 30 32
M  V30 32 2 31 33
M  V30 33 1 12 14
M  V30 34 1 25 26
M  V30 35 1 32 33
M  V30 END BOND
M  V30 BEGIN COLLECTION
M  V30 MDLV30/STEABS ATOMS=(1 4)
M  V30 END COLLECTION
M  V30 END CTAB
M  END
>  <Molecule ChEMBL ID>
CHEMBL180504

>  <Smiles>
COc1cc(C[C@H](OC)C(=O)O)ccc1OCCCOc1ccc(Oc2ccccc2)cc1

>  <IC50_nM>
13

>  <Assay Description>
Agonist activity at PPARgamma

$$$$
CHEMBL3735674
Actelion Java MolfileCreator 2.0

  0  0  0  0  0  0              0 V3000
M  V30 BEGIN CTAB
M  V30 COUNTS 41 45 0 0 0
M  V30 BEGIN ATOM
M  V30 1 O 11.8592 -3.5669 0.0 0
M  V30 2 C 10.8811 -3.7748 0.0 0
M  V30 3 O 10.212 -3.0316 0.0 0
M  V30 4 C 10.5721 -4.7258 0.0 0
M  V30 5 C 9.5939 -4.9337 0.0 0
M  V30 6 C 11.2412 -5.469 0.0 0
M  V30 7 C 8.9248 -4.1906 0.0 0
M  V30 8 C 9.2849 -5.8848 0.0 0
M  V30 9 C 10.9322 -6.42 0.0 0
M  V30 10 C 9.2338 -3.2395 0.0 0
M  V30 11 C 7.9466 -4.3985 0.0 0
M  V30 12 C 9.954 -6.6279 0.0 0
M  V30 13 C 8.5647 -2.4964 0.0 0
M  V30 14 C 7.2775 -3.6554 0.0 0
M  V30 15 C 7.5865 -2.7043 0.0 0
M  V30 16 C 6.9174 -1.9612 0.0 0
M  V30 17 N 5.9392 -2.1691 0.0 0
M  V30 18 C 5.1961 -1.4999 0.0 0
M  V30 19 C 5.5325 -3.0826 0.0 0
M  V30 20 C 4.3301 -1.9999 0.0 0
M  V30 21 C 5.1961 -0.4999 0.0 0
M  V30 22 C 4.538 -2.9781 0.0 0
M  V30 23 C 6.0325 -3.9487 0.0 0
M  V30 24 C 3.4641 -1.5 0.0 0
M  V30 25 C 4.3301 0.0 0.0 0
M  V30 26 C 3.8689 -3.7212 0.0 0
M  V30 27 C 3.4641 -0.5 0.0 0
M  V30 28 C 2.598 0.0 0.0 0
M  V30 29 O 2.598 1.0 0.0 0
M  V30 30 N 1.732 -0.5 0.0 0
M  V30 31 C 0.866 0.0 0.0 0 CFG=2
M  V30 32 C 0.866 1.0 0.0 0
M  V30 33 C 0.0 -0.5 0.0 0
M  V30 34 C 1.732 1.5 0.0 0
M  V30 35 C 0.0 1.4999 0.0 0
M  V30 36 C 1.732 2.4999 0.0 0
M  V30 37 C 0.0 2.4999 0.0 0
M  V30 38 C 0.866 2.9999 0.0 0
M  V30 39 C 0.866 3.9999 0.0 0
M  V30 40 C 1.732 4.5 0.0 0
M  V30 41 C 0.0 4.5 0.0 0
M  V30 END ATOM
M  V30 BEGIN BOND
M  V30 1 2 1 2
M  V30 2 1 2 3
M  V30 3 1 2 4
M  V30 4 2 4 5
M  V30 5 1 4 6
M  V30 6 1 5 7
M  V30 7 1 5 8
M  V30 8 2 6 9
M  V30 9 2 7 10
M  V30 10 1 7 11
M  V30 11 2 8 12
M  V30 12 1 10 13
M  V30 13 2 11 14
M  V30 14 2 13 15
M  V30 15 1 15 16
M  V30 16 1 16 17
M  V30 17 1 17 18
M  V30 18 1 17 19
M  V30 19 2 18 20
M  V30 20 1 18 21
M  V30 21 2 19 22
M  V30 22 1 19 23
M  V30 23 1 20 24
M  V30 24 2 21 25
M  V30 25 1 22 26
M  V30 26 2 24 27
M  V30 27 1 27 28
M  V30 28 2 28 29
M  V30 29 1 28 30
M  V30 30 1 30 31
M  V30 31 1 31 32
M  V30 32 1 31 33 CFG=1
M  V30 33 2 32 34
M  V30 34 1 32 35
M  V30 35 1 34 36
M  V30 36 2 35 37
M  V30 37 2 36 38
M  V30 38 1 38 39
M  V30 39 1 39 40
M  V30 40 1 39 41
M  V30 41 1 9 12
M  V30 42 1 14 15
M  V30 43 1 20 22
M  V30 44 1 25 27
M  V30 45 1 37 38
M  V30 END BOND
M  V30 BEGIN COLLECTION
M  V30 MDLV30/STEABS ATOMS=(1 31)
M  V30 END COLLECTION
M  V30 END CTAB
M  END
>  <Molecule ChEMBL ID>
CHEMBL3735674

>  <Smiles>
Cc1c(C)n(Cc2ccc(-c3ccccc3C(=O)O)cc2)c2ccc(C(=O)N[C@@H](C)c3ccc(C(C)C)cc3)cc12

>  <IC50_nM>
13

>  <Assay Description>
Binding affinity to GST-tagged PPAR-gamma-LBD (unknown origin) after 2 hrs by Lantha screen assay using fluormone Pan-PPAR green probe

$$$$
CHEMBL3735470
Actelion Java MolfileCreator 2.0

  0  0  0  0  0  0              0 V3000
M  V30 BEGIN CTAB
M  V30 COUNTS 39 43 0 0 0
M  V30 BEGIN ATOM
M  V30 1 O 11.8592 -3.5669 0.0 0
M  V30 2 C 10.8811 -3.7748 0.0 0
M  V30 3 O 10.212 -3.0316 0.0 0
M  V30 4 C 10.5721 -4.7258 0.0 0
M  V30 5 C 9.5939 -4.9337 0.0 0
M  V30 6 C 11.2412 -5.469 0.0 0
M  V30 7 C 8.9248 -4.1906 0.0 0
M  V30 8 C 9.2849 -5.8848 0.0 0
M  V30 9 C 10.9322 -6.42 0.0 0
M  V30 10 C 9.2338 -3.2395 0.0 0
M  V30 11 C 7.9466 -4.3985 0.0 0
M  V30 12 C 9.954 -6.6279 0.0 0
M  V30 13 C 8.5647 -2.4964 0.0 0
M  V30 14 C 7.2775 -3.6554 0.0 0
M  V30 15 C 7.5865 -2.7043 0.0 0
M  V30 16 C 6.9174 -1.9612 0.0 0
M  V30 17 N 5.9392 -2.1691 0.0 0
M  V30 18 C 5.1961 -1.4999 0.0 0
M  V30 19 C 5.5325 -3.0826 0.0 0
M  V30 20 C 4.3301 -1.9999 0.0 0
M  V30 21 C 5.1961 -0.4999 0.0 0
M  V30 22 C 4.538 -2.9781 0.0 0
M  V30 23 C 6.0325 -3.9487 0.0 0
M  V30 24 C 3.4641 -1.5 0.0 0
M  V30 25 C 4.3301 0.0 0.0 0
M  V30 26 C 3.8689 -3.7212 0.0 0
M  V30 27 C 3.4641 -0.5 0.0 0
M  V30 28 C 2.598 0.0 0.0 0
M  V30 29 O 2.598 1.0 0.0 0
M  V30 30 N 1.732 -0.5 0.0 0
M  V30 31 C 0.866 0.0 0.0 0 CFG=2
M  V30 32 C 0.866 1.0 0.0 0
M  V30 33 C 0.0 -0.5 0.0 0
M  V30 34 C 1.732 1.4999 0.0 0
M  V30 35 C 0.0 1.4999 0.0 0
M  V30 36 C 1.732 2.5 0.0 0
M  V30 37 C 0.0 2.5 0.0 0
M  V30 38 C 0.866 3.0 0.0 0
M  V30 39 C 0.866 4.0 0.0 0
M  V30 END ATOM
M  V30 BEGIN BOND
M  V30 1 2 1 2
M  V30 2 1 2 3
M  V30 3 1 2 4
M  V30 4 2 4 5
M  V30 5 1 4 6
M  V30 6 1 5 7
M  V30 7 1 5 8
M  V30 8 2 6 9
M  V30 9 2 7 10
M  V30 10 1 7 11
M  V30 11 2 8 12
M  V30 12 1 10 13
M  V30 13 2 11 14
M  V30 14 2 13 15
M  V30 15 1 15 16
M  V30 16 1 16 17
M  V30 17 1 17 18
M  V30 18 1 17 19
M  V30 19 2 18 20
M  V30 20 1 18 21
M  V30 21 2 19 22
M  V30 22 1 19 23
M  V30 23 1 20 24
M  V30 24 2 21 25
M  V30 25 1 22 26
M  V30 26 2 24 27
M  V30 27 1 27 28
M  V30 28 2 28 29
M  V30 29 1 28 30
M  V30 30 1 30 31
M  V30 31 1 31 32
M  V30 32 1 31 33 CFG=1
M  V30 33 2 32 34
M  V30 34 1 32 35
M  V30 35 1 34 36
M  V30 36 2 35 37
M  V30 37 2 36 38
M  V30 38 1 38 39
M  V30 39 1 9 12
M  V30 40 1 14 15
M  V30 41 1 20 22
M  V30 42 1 25 27
M  V30 43 1 37 38
M  V30 END BOND
M  V30 BEGIN COLLECTION
M  V30 MDLV30/STEABS ATOMS=(1 31)
M  V30 END COLLECTION
M  V30 END CTAB
M  END
>  <Molecule ChEMBL ID>
CHEMBL3735470

>  <Smiles>
Cc1ccc([C@H](C)NC(=O)c2ccc3c(c2)c(C)c(C)n3Cc2ccc(-c3ccccc3C(=O)O)cc2)cc1

>  <IC50_nM>
13

>  <Assay Description>
Binding affinity to GST-tagged PPAR-gamma-LBD (unknown origin) after 2 hrs by Lantha screen assay using fluormone Pan-PPAR green probe

$$$$
CHEMBL3678161
Actelion Java MolfileCreator 2.0

  0  0  0  0  0  0              0 V3000
M  V30 BEGIN CTAB
M  V30 COUNTS 38 43 0 0 0
M  V30 BEGIN ATOM
M  V30 1 O 5.1986 -0.7503 0.0 0
M  V30 2 C 3.8989 0.0 0.0 0
M  V30 3 N 2.5993 -0.7503 0.0 0
M  V30 4 C 3.8989 1.5007 0.0 0
M  V30 5 C 1.2996 0.0 0.0 0 CFG=2
M  V30 6 C 2.5993 2.251 0.0 0
M  V30 7 C 5.1986 2.251 0.0 0
M  V30 8 C 0.0 -0.7503 0.0 0
M  V30 9 C 1.2996 1.5007 0.0 0
M  V30 10 C 2.5993 3.7518 0.0 0
M  V30 11 C 5.1986 3.7518 0.0 0
M  V30 12 C 0.0 -2.251 0.0 0
M  V30 13 C -1.2996 0.0 0.0 0
M  V30 14 C 3.8989 4.5021 0.0 0
M  V30 15 C 1.484 4.7559 0.0 0
M  V30 16 C -1.2996 -3.0014 0.0 0
M  V30 17 C -2.5993 -0.7503 0.0 0
M  V30 18 N 3.5869 5.97 0.0 0
M  V30 19 C 2.0944 6.1269 0.0 0
M  V30 20 C 0.0161 4.4439 0.0 0
M  V30 21 C -2.5993 -2.251 0.0 0
M  V30 22 C -1.2996 -4.5021 0.0 0
M  V30 23 C 4.5911 7.0853 0.0 0
M  V30 24 C 1.3441 7.4266 0.0 0
M  V30 25 C -0.5493 -5.8018 0.0 0
M  V30 26 C -2.05 -5.8018 0.0 0
M  V30 27 C 4.1274 8.5126 0.0 0
M  V30 28 C 5.1315 9.6278 0.0 0
M  V30 29 C 2.6594 8.8246 0.0 0
M  V30 30 C 4.6678 11.0551 0.0 0
M  V30 31 C 2.1957 10.2519 0.0 0
M  V30 32 C 3.2031 11.3495 0.0 0
M  V30 33 C 5.672 12.1703 0.0 0
M  V30 34 C 4.3348 12.8517 0.0 0
M  V30 35 C 7.1706 12.2489 0.0 0
M  V30 36 C 6.4893 10.9117 0.0 0
M  V30 37 O 4.2563 14.3503 0.0 0
M  V30 38 O 3.0697 12.0696 0.0 0
M  V30 END ATOM
M  V30 BEGIN BOND
M  V30 1 2 1 2
M  V30 2 1 2 3
M  V30 3 1 2 4
M  V30 4 1 3 5
M  V30 5 2 4 6
M  V30 6 1 4 7
M  V30 7 1 5 8
M  V30 8 1 5 9 CFG=3
M  V30 9 1 6 10
M  V30 10 2 7 11
M  V30 11 2 8 12
M  V30 12 1 8 13
M  V30 13 2 10 14
M  V30 14 1 10 15
M  V30 15 1 12 16
M  V30 16 2 13 17
M  V30 17 1 14 18
M  V30 18 2 15 19
M  V30 19 1 15 20
M  V30 20 2 16 21
M  V30 21 1 16 22
M  V30 22 1 18 23
M  V30 23 1 19 24
M  V30 24 1 22 25
M  V30 25 1 22 26
M  V30 26 1 23 27
M  V30 27 2 27 28
M  V30 28 1 27 29
M  V30 29 1 28 30
M  V30 30 2 29 31
M  V30 31 2 30 32
M  V30 32 1 30 33
M  V30 33 1 33 34
M  V30 34 1 33 35
M  V30 35 1 33 36
M  V30 36 2 34 37
M  V30 37 1 34 38
M  V30 38 1 11 14
M  V30 39 1 17 21
M  V30 40 1 18 19
M  V30 41 1 25 26
M  V30 42 1 31 32
M  V30 43 1 35 36
M  V30 END BOND
M  V30 BEGIN COLLECTION
M  V30 MDLV30/STEABS ATOMS=(1 5)
M  V30 END COLLECTION
M  V30 END CTAB
M  END
>  <Molecule ChEMBL ID>
CHEMBL3678161

>  <Smiles>
Cc1c(C)n(Cc2cccc(C3(C(=O)O)CC3)c2)c2ccc(C(=O)N[C@@H](C)c3cccc(C4CC4)c3)cc12

>  <IC50_nM>
13

>  <Assay Description>
Lanthascreen Competitive Binding Assay: The assay was performed according to manufacturer protocol. A mixture of 5 nM GST-PPARG-LBD, 5 nM Tb-GST-antibody, 5 nM Fluormone Pan- PPAR Green, and serial dilutions of the experimental compound, beginning at 10 ׬� downwards, was added to wells of black 384-well low- volume plates (Greiner) to a total volume of 18 xL. All dilutions were made in TR-FRET assay buffer C. DMSO at 2% final concentration was used as a no-ligand control. Experiment was performed in triplicate, and incubated for 2 hours in the dark prior to assay read in Perkin Elmer ViewLux ultra HTS microplate reader. FRET signal was measured by excitation at 340 nm and emission at 520 nm for fluorescein and 490 nm for terbium.

$$$$
CHEMBL180504
Actelion Java MolfileCreator 2.0

  0  0  0  0  0  0              0 V3000
M  V30 BEGIN CTAB
M  V30 COUNTS 33 35 0 0 0
M  V30 BEGIN ATOM
M  V30 1 O 8.6602 -4.5 0.0 0
M  V30 2 C 8.6602 -3.5 0.0 0
M  V30 3 O 9.5262 -3.0 0.0 0
M  V30 4 C 7.7942 -3.0 0.0 0 CFG=1
M  V30 5 O 6.9282 -3.5 0.0 0
M  V30 6 C 7.7942 -2.0 0.0 0
M  V30 7 C 6.9282 -4.5 0.0 0
M  V30 8 C 6.9282 -1.5 0.0 0
M  V30 9 C 6.9282 -0.5 0.0 0
M  V30 10 C 6.0621 -2.0 0.0 0
M  V30 11 C 6.0621 0.0 0.0 0
M  V30 12 C 5.1961 -1.5 0.0 0
M  V30 13 O 6.0621 1.0 0.0 0
M  V30 14 C 5.1961 -0.5 0.0 0
M  V30 15 C 5.1961 1.5 0.0 0
M  V30 16 O 4.3301 0.0 0.0 0
M  V30 17 C 3.4641 -0.5 0.0 0
M  V30 18 C 2.598 0.0 0.0 0
M  V30 19 C 1.732 -0.5 0.0 0
M  V30 20 O 0.866 0.0 0.0 0
M  V30 21 C 0.0 -0.5 0.0 0
M  V30 22 C -0.866 0.0 0.0 0
M  V30 23 C 0.0 -1.4999 0.0 0
M  V30 24 C -1.732 -0.4999 0.0 0
M  V30 25 C -0.866 -1.9999 0.0 0
M  V30 26 C -1.732 -1.4999 0.0 0
M  V30 27 O -2.598 -1.9999 0.0 0
M  V30 28 C -2.598 -2.9999 0.0 0
M  V30 29 C -3.4641 -3.4999 0.0 0
M  V30 30 C -1.732 -3.4999 0.0 0
M  V30 31 C -3.4641 -4.4999 0.0 0
M  V30 32 C -1.732 -4.4999 0.0 0
M  V30 33 C -2.598 -4.9999 0.0 0
M  V30 END ATOM
M  V30 BEGIN BOND
M  V30 1 2 1 2
M  V30 2 1 2 3
M  V30 3 1 2 4
M  V30 4 1 4 5 CFG=1
M  V30 5 1 4 6
M  V30 6 1 5 7
M  V30 7 1 6 8
M  V30 8 2 8 9
M  V30 9 1 8 10
M  V30 10 1 9 11
M  V30 11 2 10 12
M  V30 12 1 11 13
M  V30 13 2 11 14
M  V30 14 1 13 15
M  V30 15 1 14 16
M  V30 16 1 16 17
M  V30 17 1 17 18
M  V30 18 1 18 19
M  V30 19 1 19 20
M  V30 20 1 20 21
M  V30 21 2 21 22
M  V30 22 1 21 23
M  V30 23 1 22 24
M  V30 24 2 23 25
M  V30 25 2 24 26
M  V30 26 1 26 27
M  V30 27 1 27 28
M  V30 28 2 28 29
M  V30 29 1 28 30
M  V30 30 1 29 31
M  V30 31 2 30 32
M  V30 32 2 31 33
M  V30 33 1 12 14
M  V30 34 1 25 26
M  V30 35 1 32 33
M  V30 END BOND
M  V30 BEGIN COLLECTION
M  V30 MDLV30/STEABS ATOMS=(1 4)
M  V30 END COLLECTION
M  V30 END CTAB
M  END
>  <Molecule ChEMBL ID>
CHEMBL180504

>  <Smiles>
COc1cc(C[C@H](OC)C(=O)O)ccc1OCCCOc1ccc(Oc2ccccc2)cc1

>  <IC50_nM>
13

>  <Assay Description>
Agonist activity at PPARgamma

$$$$
CHEMBL3695770
Actelion Java MolfileCreator 2.0

  0  0  0  0  0  0              0 V3000
M  V30 BEGIN CTAB
M  V30 COUNTS 40 44 0 0 0
M  V30 BEGIN ATOM
M  V30 1 O 11.8592 -3.5669 0.0 0
M  V30 2 C 10.8811 -3.7748 0.0 0
M  V30 3 O 10.212 -3.0316 0.0 0
M  V30 4 C 10.5721 -4.7258 0.0 0
M  V30 5 C 9.5939 -4.9337 0.0 0
M  V30 6 C 11.2412 -5.469 0.0 0
M  V30 7 C 8.9248 -4.1906 0.0 0
M  V30 8 C 9.2849 -5.8848 0.0 0
M  V30 9 C 10.9322 -6.42 0.0 0
M  V30 10 C 9.2338 -3.2395 0.0 0
M  V30 11 C 7.9466 -4.3985 0.0 0
M  V30 12 C 9.954 -6.6279 0.0 0
M  V30 13 C 8.5647 -2.4964 0.0 0
M  V30 14 C 7.2775 -3.6554 0.0 0
M  V30 15 C 7.5865 -2.7043 0.0 0
M  V30 16 C 6.9174 -1.9612 0.0 0
M  V30 17 N 5.9392 -2.1691 0.0 0
M  V30 18 C 5.1961 -1.4999 0.0 0
M  V30 19 C 5.5325 -3.0826 0.0 0
M  V30 20 C 4.3301 -1.9999 0.0 0
M  V30 21 C 5.1961 -0.4999 0.0 0
M  V30 22 C 4.538 -2.9781 0.0 0
M  V30 23 C 6.0325 -3.9487 0.0 0
M  V30 24 C 3.4641 -1.5 0.0 0
M  V30 25 C 4.3301 0.0 0.0 0
M  V30 26 C 3.8689 -3.7212 0.0 0
M  V30 27 C 3.4641 -0.5 0.0 0
M  V30 28 C 2.598 0.0 0.0 0
M  V30 29 O 2.598 1.0 0.0 0
M  V30 30 N 1.732 -0.5 0.0 0
M  V30 31 C 0.866 0.0 0.0 0
M  V30 32 C 0.0 -0.5 0.0 0
M  V30 33 C -0.866 0.0 0.0 0
M  V30 34 C 0.0 -1.4999 0.0 0
M  V30 35 C -1.732 -0.4999 0.0 0
M  V30 36 C -0.866 -1.9999 0.0 0
M  V30 37 C -1.732 -1.4999 0.0 0
M  V30 38 N -2.598 -1.9999 0.0 0
M  V30 39 C -3.4641 -1.4999 0.0 0
M  V30 40 C -2.598 -2.9999 0.0 0
M  V30 END ATOM
M  V30 BEGIN BOND
M  V30 1 2 1 2
M  V30 2 1 2 3
M  V30 3 1 2 4
M  V30 4 2 4 5
M  V30 5 1 4 6
M  V30 6 1 5 7
M  V30 7 1 5 8
M  V30 8 2 6 9
M  V30 9 2 7 10
M  V30 10 1 7 11
M  V30 11 2 8 12
M  V30 12 1 10 13
M  V30 13 2 11 14
M  V30 14 2 13 15
M  V30 15 1 15 16
M  V30 16 1 16 17
M  V30 17 1 17 18
M  V30 18 1 17 19
M  V30 19 2 18 20
M  V30 20 1 18 21
M  V30 21 2 19 22
M  V30 22 1 19 23
M  V30 23 1 20 24
M  V30 24 2 21 25
M  V30 25 1 22 26
M  V30 26 2 24 27
M  V30 27 1 27 28
M  V30 28 2 28 29
M  V30 29 1 28 30
M  V30 30 1 30 31
M  V30 31 1 31 32
M  V30 32 2 32 33
M  V30 33 1 32 34
M  V30 34 1 33 35
M  V30 35 2 34 36
M  V30 36 2 35 37
M  V30 37 1 37 38
M  V30 38 1 38 39
M  V30 39 1 38 40
M  V30 40 1 9 12
M  V30 41 1 14 15
M  V30 42 1 20 22
M  V30 43 1 25 27
M  V30 44 1 36 37
M  V30 END BOND
M  V30 END CTAB
M  END
>  <Molecule ChEMBL ID>
CHEMBL3695770

>  <Smiles>
Cc1c(C)n(Cc2ccc(-c3ccccc3C(=O)O)cc2)c2ccc(C(=O)NCc3ccc(N(C)C)cc3)cc12

>  <IC50_nM>
13

>  <Assay Description>
Lanthascreen Competitive Binding Assay: The assay was performed according to manufacturer protocol. A mixture of nM GST-PPARG-LBD, 5 nM Tb-GST-antibody, 5 nM Fluormone Pan-PPAR Green, and serial dilutions of the experimental compound, beginning at 10 ׬M downwards, was added to wells of black 384-well low-volume plates (Greiner) to a total volume of 18 ׬L. All dilutions were made in TR-FRET assay buffer C. DMSO at 2% final concentration was used as a no-ligand control. Experiment was performed in triplicate, and incubated for 2 hours in the dark prior to assay read in Perkin Elmer ViewLux ultra HTS microplate reader. FRET signal was measured by excitation at 340 nm and emission at 520 nm for fluorescein and 490 nm for terbium. Fold change over DMSO was calculated using GraphPad Prism Software (La Jolla, Calif.) by calculating 520 nm/490 nm ratio. Graphs were plotted as fold change of FRET signal for compound treatment over DMSO-only control.

$$$$
CHEMBL3695818
Actelion Java MolfileCreator 2.0

  0  0  0  0  0  0              0 V3000
M  V30 BEGIN CTAB
M  V30 COUNTS 38 42 0 0 0
M  V30 BEGIN ATOM
M  V30 1 O 11.8592 -3.5669 0.0 0
M  V30 2 C 10.8811 -3.7748 0.0 0
M  V30 3 O 10.212 -3.0316 0.0 0
M  V30 4 C 10.5721 -4.7258 0.0 0
M  V30 5 C 9.5939 -4.9337 0.0 0
M  V30 6 C 11.2412 -5.469 0.0 0
M  V30 7 C 8.9248 -4.1906 0.0 0
M  V30 8 C 9.2849 -5.8848 0.0 0
M  V30 9 C 10.9322 -6.42 0.0 0
M  V30 10 C 9.2338 -3.2395 0.0 0
M  V30 11 C 7.9466 -4.3985 0.0 0
M  V30 12 C 9.954 -6.6279 0.0 0
M  V30 13 C 8.5647 -2.4964 0.0 0
M  V30 14 C 7.2775 -3.6554 0.0 0
M  V30 15 C 7.5865 -2.7043 0.0 0
M  V30 16 C 6.9174 -1.9612 0.0 0
M  V30 17 N 5.9392 -2.1691 0.0 0
M  V30 18 C 5.1961 -1.4999 0.0 0
M  V30 19 C 5.5325 -3.0826 0.0 0
M  V30 20 C 4.3301 -1.9999 0.0 0
M  V30 21 C 5.1961 -0.4999 0.0 0
M  V30 22 C 4.538 -2.9781 0.0 0
M  V30 23 C 6.0325 -3.9487 0.0 0
M  V30 24 C 3.4641 -1.5 0.0 0
M  V30 25 C 4.3301 0.0 0.0 0
M  V30 26 C 3.8689 -3.7212 0.0 0
M  V30 27 C 3.4641 -0.5 0.0 0
M  V30 28 C 2.598 0.0 0.0 0
M  V30 29 O 2.598 1.0 0.0 0
M  V30 30 N 1.732 -0.5 0.0 0
M  V30 31 C 0.866 0.0 0.0 0
M  V30 32 C 0.0 -0.5 0.0 0
M  V30 33 C -0.866 0.0 0.0 0
M  V30 34 C 0.0 -1.4999 0.0 0
M  V30 35 C -1.732 -0.4999 0.0 0
M  V30 36 C -0.866 -1.9999 0.0 0
M  V30 37 N -2.598 0.0 0.0 0
M  V30 38 C -1.732 -1.4999 0.0 0
M  V30 END ATOM
M  V30 BEGIN BOND
M  V30 1 2 1 2
M  V30 2 1 2 3
M  V30 3 1 2 4
M  V30 4 2 4 5
M  V30 5 1 4 6
M  V30 6 1 5 7
M  V30 7 1 5 8
M  V30 8 2 6 9
M  V30 9 2 7 10
M  V30 10 1 7 11
M  V30 11 2 8 12
M  V30 12 1 10 13
M  V30 13 2 11 14
M  V30 14 2 13 15
M  V30 15 1 15 16
M  V30 16 1 16 17
M  V30 17 1 17 18
M  V30 18 1 17 19
M  V30 19 2 18 20
M  V30 20 1 18 21
M  V30 21 2 19 22
M  V30 22 1 19 23
M  V30 23 1 20 24
M  V30 24 2 21 25
M  V30 25 1 22 26
M  V30 26 2 24 27
M  V30 27 1 27 28
M  V30 28 2 28 29
M  V30 29 1 28 30
M  V30 30 1 30 31
M  V30 31 1 31 32
M  V30 32 2 32 33
M  V30 33 1 32 34
M  V30 34 1 33 35
M  V30 35 2 34 36
M  V30 36 1 35 37
M  V30 37 2 35 38
M  V30 38 1 9 12
M  V30 39 1 14 15
M  V30 40 1 20 22
M  V30 41 1 25 27
M  V30 42 1 36 38
M  V30 END BOND
M  V30 END CTAB
M  END
>  <Molecule ChEMBL ID>
CHEMBL3695818

>  <Smiles>
Cc1c(C)n(Cc2ccc(-c3ccccc3C(=O)O)cc2)c2ccc(C(=O)NCc3cccc(N)c3)cc12

>  <IC50_nM>
13

>  <Assay Description>
Lanthascreen Competitive Binding Assay: The assay was performed according to manufacturer protocol. A mixture of nM GST-PPARG-LBD, 5 nM Tb-GST-antibody, 5 nM Fluormone Pan-PPAR Green, and serial dilutions of the experimental compound, beginning at 10 ׬M downwards, was added to wells of black 384-well low-volume plates (Greiner) to a total volume of 18 ׬L. All dilutions were made in TR-FRET assay buffer C. DMSO at 2% final concentration was used as a no-ligand control. Experiment was performed in triplicate, and incubated for 2 hours in the dark prior to assay read in Perkin Elmer ViewLux ultra HTS microplate reader. FRET signal was measured by excitation at 340 nm and emission at 520 nm for fluorescein and 490 nm for terbium. Fold change over DMSO was calculated using GraphPad Prism Software (La Jolla, Calif.) by calculating 520 nm/490 nm ratio. Graphs were plotted as fold change of FRET signal for compound treatment over DMSO-only control.

$$$$
CHEMBL181656
Actelion Java MolfileCreator 2.0

  0  0  0  0  0  0              0 V3000
M  V30 BEGIN CTAB
M  V30 COUNTS 31 33 0 0 0
M  V30 BEGIN ATOM
M  V30 1 O 3.4641 -0.5 0.0 0
M  V30 2 C 2.598 0.0 0.0 0
M  V30 3 O 2.598 1.0 0.0 0
M  V30 4 C 1.732 -0.5 0.0 0 CFG=1
M  V30 5 O 1.732 -1.5 0.0 0
M  V30 6 C 0.866 0.0 0.0 0
M  V30 7 C 2.598 -1.9999 0.0 0
M  V30 8 C 0.0 -0.5 0.0 0
M  V30 9 C -0.866 0.0 0.0 0
M  V30 10 C 0.0 -1.4999 0.0 0
M  V30 11 C -1.732 -0.4999 0.0 0
M  V30 12 C -0.866 -1.9999 0.0 0
M  V30 13 C -1.732 -1.4999 0.0 0
M  V30 14 C -2.598 -1.9999 0.0 0
M  V30 15 C -3.4641 -2.4999 0.0 0
M  V30 16 C -4.3301 -2.9999 0.0 0
M  V30 17 C -4.3301 -3.9999 0.0 0
M  V30 18 O -5.1961 -4.4999 0.0 0
M  V30 19 C -5.1961 -5.4999 0.0 0
M  V30 20 C -6.0621 -5.9999 0.0 0
M  V30 21 C -4.3301 -5.9999 0.0 0
M  V30 22 C -6.0621 -6.9999 0.0 0
M  V30 23 C -4.3301 -6.9999 0.0 0
M  V30 24 C -5.1961 -7.4999 0.0 0
M  V30 25 O -5.1961 -8.4999 0.0 0
M  V30 26 C -4.3301 -8.9999 0.0 0
M  V30 27 C -4.3301 -9.9999 0.0 0
M  V30 28 C -3.4641 -8.4999 0.0 0
M  V30 29 C -3.4641 -10.5 0.0 0
M  V30 30 C -2.598 -9.0 0.0 0
M  V30 31 C -2.598 -10.0 0.0 0
M  V30 END ATOM
M  V30 BEGIN BOND
M  V30 1 2 1 2
M  V30 2 1 2 3
M  V30 3 1 2 4
M  V30 4 1 4 5 CFG=1
M  V30 5 1 4 6
M  V30 6 1 5 7
M  V30 7 1 6 8
M  V30 8 2 8 9
M  V30 9 1 8 10
M  V30 10 1 9 11
M  V30 11 2 10 12
M  V30 12 2 11 13
M  V30 13 1 13 14
M  V30 14 3 14 15
M  V30 15 1 15 16
M  V30 16 1 16 17
M  V30 17 1 17 18
M  V30 18 1 18 19
M  V30 19 2 19 20
M  V30 20 1 19 21
M  V30 21 1 20 22
M  V30 22 2 21 23
M  V30 23 2 22 24
M  V30 24 1 24 25
M  V30 25 1 25 26
M  V30 26 2 26 27
M  V30 27 1 26 28
M  V30 28 1 27 29
M  V30 29 2 28 30
M  V30 30 2 29 31
M  V30 31 1 12 13
M  V30 32 1 23 24
M  V30 33 1 30 31
M  V30 END BOND
M  V30 BEGIN COLLECTION
M  V30 MDLV30/STEABS ATOMS=(1 4)
M  V30 END COLLECTION
M  V30 END CTAB
M  END
>  <Molecule ChEMBL ID>
CHEMBL181656

>  <Smiles>
CO[C@@H](Cc1ccc(C#CCCOc2ccc(Oc3ccccc3)cc2)cc1)C(=O)O

>  <IC50_nM>
13

>  <Assay Description>
Agonist activity at PPARgamma

$$$$
CHEMBL1947146
Actelion Java MolfileCreator 2.0

  0  0  0  0  0  0              0 V3000
M  V30 BEGIN CTAB
M  V30 COUNTS 35 39 0 0 0
M  V30 BEGIN ATOM
M  V30 1 Cl 9.0932 -3.0 0.0 0
M  V30 2 C 7.7942 -2.25 0.0 0
M  V30 3 C 7.7942 -0.75 0.0 0
M  V30 4 C 6.4951 -2.9999 0.0 0
M  V30 5 C 6.4951 0.0 0.0 0
M  V30 6 C 9.0932 0.0 0.0 0
M  V30 7 C 5.1961 -2.25 0.0 0
M  V30 8 C 5.1961 -0.75 0.0 0
M  V30 9 N 9.0932 1.5 0.0 0
M  V30 10 O 3.8971 0.0 0.0 0
M  V30 11 C 10.3067 2.3816 0.0 0
M  V30 12 C 7.8797 2.3816 0.0 0
M  V30 13 C 2.598 -0.75 0.0 0 CFG=1
M  V30 14 O 11.7333 1.9181 0.0 0
M  V30 15 N 9.8432 3.8082 0.0 0
M  V30 16 C 8.3432 3.8082 0.0 0
M  V30 17 C 6.4125 2.0698 0.0 0
M  V30 18 C 1.299 0.0 0.0 0
M  V30 19 C 2.598 -2.25 0.0 0
M  V30 20 C 10.7249 5.0217 0.0 0
M  V30 21 C 7.3395 4.9229 0.0 0
M  V30 22 C 5.4088 3.1845 0.0 0
M  V30 23 O 1.299 1.5 0.0 0
M  V30 24 O 0.0 -0.75 0.0 0
M  V30 25 N 12.2249 5.0217 0.0 0
M  V30 26 C 10.2614 6.4483 0.0 0
M  V30 27 C 5.8723 4.6111 0.0 0
M  V30 28 O 12.6884 6.4483 0.0 0
M  V30 29 C 11.4749 7.33 0.0 0
M  V30 30 C 8.8911 7.0584 0.0 0
M  V30 31 C 11.3181 8.8218 0.0 0
M  V30 32 C 8.7343 8.5502 0.0 0
M  V30 33 C 9.9478 9.4319 0.0 0
M  V30 34 O 9.791 10.9237 0.0 0
M  V30 35 C 8.4207 11.5338 0.0 0
M  V30 END ATOM
M  V30 BEGIN BOND
M  V30 1 1 1 2
M  V30 2 2 2 3
M  V30 3 1 2 4
M  V30 4 1 3 5
M  V30 5 1 3 6
M  V30 6 2 4 7
M  V30 7 2 5 8
M  V30 8 1 6 9
M  V30 9 1 8 10
M  V30 10 1 9 11
M  V30 11 1 9 12
M  V30 12 1 10 13
M  V30 13 2 11 14
M  V30 14 1 11 15
M  V30 15 2 12 16
M  V30 16 1 12 17
M  V30 17 1 13 18
M  V30 18 1 13 19 CFG=3
M  V30 19 1 15 20
M  V30 20 1 16 21
M  V30 21 2 17 22
M  V30 22 2 18 23
M  V30 23 1 18 24
M  V30 24 2 20 25
M  V30 25 1 20 26
M  V30 26 2 21 27
M  V30 27 1 25 28
M  V30 28 2 26 29
M  V30 29 1 26 30
M  V30 30 1 29 31
M  V30 31 2 30 32
M  V30 32 2 31 33
M  V30 33 1 33 34
M  V30 34 1 34 35
M  V30 35 1 7 8
M  V30 36 1 15 16
M  V30 37 1 22 27
M  V30 38 1 28 29
M  V30 39 1 32 33
M  V30 END BOND
M  V30 BEGIN COLLECTION
M  V30 MDLV30/STEABS ATOMS=(1 13)
M  V30 END COLLECTION
M  V30 END CTAB
M  END
>  <Molecule ChEMBL ID>
CHEMBL1947146

>  <Smiles>
COc1ccc2c(-n3c(=O)n(Cc4cc(O[C@H](C)C(=O)O)ccc4Cl)c4ccccc43)noc2c1

>  <IC50_nM>
13.7

>  <Assay Description>
Binding affinity to human PPARgamma by scintillation proximity assay

$$$$
CHEMBL5271038
Actelion Java MolfileCreator 2.0

  0  0  0  0  0  0              0 V3000
M  V30 BEGIN CTAB
M  V30 COUNTS 36 39 0 0 0
M  V30 BEGIN ATOM
M  V30 1 Cl 6.0621 -1.9999 0.0 0
M  V30 2 C 5.1961 -1.4999 0.0 0
M  V30 3 C 5.1961 -0.5 0.0 0
M  V30 4 C 4.3301 -1.9999 0.0 0
M  V30 5 C 6.0621 0.0 0.0 0
M  V30 6 C 4.3301 0.0 0.0 0
M  V30 7 C 3.4641 -1.5 0.0 0
M  V30 8 O 6.0621 0.9999 0.0 0
M  V30 9 N 6.9282 -0.5 0.0 0
M  V30 10 C 3.4641 -0.5 0.0 0
M  V30 11 F 2.598 -2.0 0.0 0
M  V30 12 C 7.7942 0.0 0.0 0
M  V30 13 C 2.598 0.0 0.0 0
M  V30 14 N 8.6602 -0.5 0.0 0
M  V30 15 C 7.7942 0.9999 0.0 0
M  V30 16 O 2.598 1.0 0.0 0
M  V30 17 N 1.732 -0.5 0.0 0
M  V30 18 C 9.5262 0.0 0.0 0
M  V30 19 C 8.6602 1.4999 0.0 0
M  V30 20 C 6.9282 1.4999 0.0 0
M  V30 21 C 0.866 0.0 0.0 0
M  V30 22 C 9.5262 0.9999 0.0 0
M  V30 23 C 0.0 -0.5 0.0 0
M  V30 24 N 10.3923 1.4999 0.0 0
M  V30 25 C -0.866 0.0 0.0 0
M  V30 26 C 0.0 -1.4999 0.0 0
M  V30 27 C 11.2583 0.9999 0.0 0
M  V30 28 C 10.3923 2.4999 0.0 0
M  V30 29 C -1.732 -0.4999 0.0 0
M  V30 30 C -0.866 -1.9999 0.0 0
M  V30 31 C 12.1243 1.4999 0.0 0
M  V30 32 C 11.2583 2.9999 0.0 0
M  V30 33 F -2.598 0.0 0.0 0
M  V30 34 C -1.732 -1.4999 0.0 0
M  V30 35 O 12.1243 2.4999 0.0 0
M  V30 36 F -2.598 -1.9999 0.0 0
M  V30 END ATOM
M  V30 BEGIN BOND
M  V30 1 1 1 2
M  V30 2 2 2 3
M  V30 3 1 2 4
M  V30 4 1 3 5
M  V30 5 1 3 6
M  V30 6 2 4 7
M  V30 7 2 5 8
M  V30 8 1 5 9
M  V30 9 2 6 10
M  V30 10 1 7 11
M  V30 11 1 9 12
M  V30 12 1 10 13
M  V30 13 2 12 14
M  V30 14 1 12 15
M  V30 15 2 13 16
M  V30 16 1 13 17
M  V30 17 1 14 18
M  V30 18 2 15 19
M  V30 19 1 15 20
M  V30 20 1 17 21
M  V30 21 2 18 22
M  V30 22 1 21 23
M  V30 23 1 22 24
M  V30 24 2 23 25
M  V30 25 1 23 26
M  V30 26 1 24 27
M  V30 27 1 24 28
M  V30 28 1 25 29
M  V30 29 2 26 30
M  V30 30 1 27 31
M  V30 31 1 28 32
M  V30 32 1 29 33
M  V30 33 2 29 34
M  V30 34 1 31 35
M  V30 35 1 34 36
M  V30 36 1 7 10
M  V30 37 1 19 22
M  V30 38 1 30 34
M  V30 39 1 32 35
M  V30 END BOND
M  V30 END CTAB
M  END
>  <Molecule ChEMBL ID>
CHEMBL5271038

>  <Smiles>
Cc1cc(N2CCOCC2)cnc1NC(=O)c1cc(C(=O)NCc2ccc(F)c(F)c2)c(F)cc1Cl

>  <IC50_nM>
14

>  <Assay Description>
Inverse agonist activity at human PPARgamma expressed in CHO cells co-expressing GAL4-NHR-LBD assessed as transcriptional repression preincubated for 6 hrs followed by luciferin addition by luminescence method

$$$$
CHEMBL5272194
Actelion Java MolfileCreator 2.0

  0  0  0  0  0  0              0 V3000
M  V30 BEGIN CTAB
M  V30 COUNTS 34 36 0 0 0
M  V30 BEGIN ATOM
M  V30 1 Cl 6.0621 -1.9999 0.0 0
M  V30 2 C 5.1961 -1.4999 0.0 0
M  V30 3 C 5.1961 -0.5 0.0 0
M  V30 4 C 4.3301 -1.9999 0.0 0
M  V30 5 C 6.0621 0.0 0.0 0
M  V30 6 C 4.3301 0.0 0.0 0
M  V30 7 C 3.4641 -1.5 0.0 0
M  V30 8 O 6.0621 0.9999 0.0 0
M  V30 9 N 6.9282 -0.5 0.0 0
M  V30 10 C 3.4641 -0.5 0.0 0
M  V30 11 F 2.598 -2.0 0.0 0
M  V30 12 C 7.7942 0.0 0.0 0
M  V30 13 C 2.598 0.0 0.0 0
M  V30 14 C 8.6602 -0.5 0.0 0
M  V30 15 C 7.7942 0.9999 0.0 0
M  V30 16 O 2.598 1.0 0.0 0
M  V30 17 N 1.732 -0.5 0.0 0
M  V30 18 C 9.5262 0.0 0.0 0
M  V30 19 C 8.6602 -1.5 0.0 0
M  V30 20 C 8.6602 1.4999 0.0 0
M  V30 21 C 0.866 0.0 0.0 0
M  V30 22 C 9.5262 0.9999 0.0 0
M  V30 23 C 0.0 -0.5 0.0 0
M  V30 24 O 10.3923 1.4999 0.0 0
M  V30 25 C -0.866 0.0 0.0 0
M  V30 26 C 0.0 -1.4999 0.0 0
M  V30 27 C 10.3923 2.4999 0.0 0
M  V30 28 C -1.732 -0.4999 0.0 0
M  V30 29 C -0.866 -1.9999 0.0 0
M  V30 30 C 11.2583 2.9999 0.0 0
M  V30 31 F -2.598 0.0 0.0 0
M  V30 32 C -1.732 -1.4999 0.0 0
M  V30 33 O 11.2583 3.9999 0.0 0
M  V30 34 F -2.598 -1.9999 0.0 0
M  V30 END ATOM
M  V30 BEGIN BOND
M  V30 1 1 1 2
M  V30 2 2 2 3
M  V30 3 1 2 4
M  V30 4 1 3 5
M  V30 5 1 3 6
M  V30 6 2 4 7
M  V30 7 2 5 8
M  V30 8 1 5 9
M  V30 9 2 6 10
M  V30 10 1 7 11
M  V30 11 1 9 12
M  V30 12 1 10 13
M  V30 13 2 12 14
M  V30 14 1 12 15
M  V30 15 2 13 16
M  V30 16 1 13 17
M  V30 17 1 14 18
M  V30 18 1 14 19
M  V30 19 2 15 20
M  V30 20 1 17 21
M  V30 21 2 18 22
M  V30 22 1 21 23
M  V30 23 1 22 24
M  V30 24 2 23 25
M  V30 25 1 23 26
M  V30 26 1 24 27
M  V30 27 1 25 28
M  V30 28 2 26 29
M  V30 29 1 27 30
M  V30 30 1 28 31
M  V30 31 2 28 32
M  V30 32 1 30 33
M  V30 33 1 32 34
M  V30 34 1 7 10
M  V30 35 1 20 22
M  V30 36 1 29 32
M  V30 END BOND
M  V30 END CTAB
M  END
>  <Molecule ChEMBL ID>
CHEMBL5272194

>  <Smiles>
Cc1cc(OCCO)ccc1NC(=O)c1cc(C(=O)NCc2ccc(F)c(F)c2)c(F)cc1Cl

>  <IC50_nM>
14

>  <Assay Description>
Inverse agonist activity at human PPARgamma in human RT112/84 transfected with NLuc-fused FABP4 assessed as reduction in PPARgamma transactivation incubated for 6 to 18 hrs by Nano-Glo luciferase assay

$$$$
CHEMBL3695771
Actelion Java MolfileCreator 2.0

  0  0  0  0  0  0              0 V3000
M  V30 BEGIN CTAB
M  V30 COUNTS 38 42 0 0 0
M  V30 BEGIN ATOM
M  V30 1 Br 9.0932 -3.0 0.0 0
M  V30 2 C 7.7942 -2.25 0.0 0
M  V30 3 C 7.7942 -0.75 0.0 0
M  V30 4 C 6.4951 -2.9999 0.0 0
M  V30 5 C 6.4951 0.0 0.0 0
M  V30 6 C 5.1961 -2.25 0.0 0
M  V30 7 C 5.1961 -0.75 0.0 0
M  V30 8 C 3.8971 0.0 0.0 0
M  V30 9 N 2.598 -0.75 0.0 0
M  V30 10 C 1.299 0.0 0.0 0
M  V30 11 O 1.299 1.5 0.0 0
M  V30 12 C 0.0 -0.75 0.0 0
M  V30 13 C 0.0 -2.25 0.0 0
M  V30 14 C -1.299 0.0 0.0 0
M  V30 15 C -1.299 -2.9999 0.0 0
M  V30 16 C -2.598 -0.7499 0.0 0
M  V30 17 C -2.598 -2.2499 0.0 0
M  V30 18 C -1.6109 -4.4672 0.0 0
M  V30 19 N -3.7127 -3.2536 0.0 0
M  V30 20 C -3.1026 -4.624 0.0 0
M  V30 21 C -0.6072 -5.5819 0.0 0
M  V30 22 C -5.18 -2.9418 0.0 0
M  V30 23 C -3.8526 -5.923 0.0 0
M  V30 24 C -6.1837 -4.0565 0.0 0
M  V30 25 C -7.6509 -3.7446 0.0 0
M  V30 26 C -5.7201 -5.4831 0.0 0
M  V30 27 C -8.6546 -4.8593 0.0 0
M  V30 28 C -6.7238 -6.5978 0.0 0
M  V30 29 C -8.1911 -6.2859 0.0 0
M  V30 30 C -9.1947 -7.4006 0.0 0
M  V30 31 C -10.662 -7.0888 0.0 0
M  V30 32 C -8.7312 -8.8272 0.0 0
M  V30 33 C -11.1255 -5.6622 0.0 0
M  V30 34 C -11.6657 -8.2035 0.0 0
M  V30 35 C -9.7349 -9.9419 0.0 0
M  V30 36 O -10.1218 -4.5475 0.0 0
M  V30 37 O -12.5927 -5.3503 0.0 0
M  V30 38 C -11.2021 -9.6301 0.0 0
M  V30 END ATOM
M  V30 BEGIN BOND
M  V30 1 1 1 2
M  V30 2 2 2 3
M  V30 3 1 2 4
M  V30 4 1 3 5
M  V30 5 2 4 6
M  V30 6 2 5 7
M  V30 7 1 7 8
M  V30 8 1 8 9
M  V30 9 1 9 10
M  V30 10 2 10 11
M  V30 11 1 10 12
M  V30 12 2 12 13
M  V30 13 1 12 14
M  V30 14 1 13 15
M  V30 15 2 14 16
M  V30 16 2 15 17
M  V30 17 1 15 18
M  V30 18 1 17 19
M  V30 19 2 18 20
M  V30 20 1 18 21
M  V30 21 1 19 22
M  V30 22 1 20 23
M  V30 23 1 22 24
M  V30 24 2 24 25
M  V30 25 1 24 26
M  V30 26 1 25 27
M  V30 27 2 26 28
M  V30 28 2 27 29
M  V30 29 1 29 30
M  V30 30 2 30 31
M  V30 31 1 30 32
M  V30 32 1 31 33
M  V30 33 1 31 34
M  V30 34 2 32 35
M  V30 35 2 33 36
M  V30 36 1 33 37
M  V30 37 2 34 38
M  V30 38 1 6 7
M  V30 39 1 16 17
M  V30 40 1 19 20
M  V30 41 1 28 29
M  V30 42 1 35 38
M  V30 END BOND
M  V30 END CTAB
M  END
>  <Molecule ChEMBL ID>
CHEMBL3695771

>  <Smiles>
Cc1c(C)n(Cc2ccc(-c3ccccc3C(=O)O)cc2)c2ccc(C(=O)NCc3ccc(Br)cc3)cc12

>  <IC50_nM>
14

>  <Assay Description>
Lanthascreen Competitive Binding Assay: The assay was performed according to manufacturer protocol. A mixture of nM GST-PPARG-LBD, 5 nM Tb-GST-antibody, 5 nM Fluormone Pan-PPAR Green, and serial dilutions of the experimental compound, beginning at 10 ׬M downwards, was added to wells of black 384-well low-volume plates (Greiner) to a total volume of 18 ׬L. All dilutions were made in TR-FRET assay buffer C. DMSO at 2% final concentration was used as a no-ligand control. Experiment was performed in triplicate, and incubated for 2 hours in the dark prior to assay read in Perkin Elmer ViewLux ultra HTS microplate reader. FRET signal was measured by excitation at 340 nm and emission at 520 nm for fluorescein and 490 nm for terbium. Fold change over DMSO was calculated using GraphPad Prism Software (La Jolla, Calif.) by calculating 520 nm/490 nm ratio. Graphs were plotted as fold change of FRET signal for compound treatment over DMSO-only control.

$$$$
CHEMBL3678093
Actelion Java MolfileCreator 2.0

  0  0  0  0  0  0              0 V3000
M  V30 BEGIN CTAB
M  V30 COUNTS 30 33 0 0 0
M  V30 BEGIN ATOM
M  V30 1 F 8.8737 -1.5453 0.0 0
M  V30 2 C 8.5647 -2.4964 0.0 0
M  V30 3 C 7.5865 -2.7043 0.0 0
M  V30 4 C 9.2338 -3.2395 0.0 0
M  V30 5 C 7.2775 -3.6554 0.0 0
M  V30 6 C 6.9174 -1.9612 0.0 0
M  V30 7 C 8.9248 -4.1906 0.0 0
M  V30 8 C 7.9466 -4.3985 0.0 0
M  V30 9 N 5.9392 -2.1691 0.0 0
M  V30 10 F 9.5939 -4.9337 0.0 0
M  V30 11 C 5.1961 -1.4999 0.0 0
M  V30 12 C 5.5325 -3.0826 0.0 0
M  V30 13 C 4.3301 -1.9999 0.0 0
M  V30 14 C 5.1961 -0.4999 0.0 0
M  V30 15 C 4.538 -2.9781 0.0 0
M  V30 16 C 3.4641 -1.5 0.0 0
M  V30 17 C 4.3301 0.0 0.0 0
M  V30 18 C 3.4641 -0.5 0.0 0
M  V30 19 C 2.598 0.0 0.0 0
M  V30 20 O 2.598 1.0 0.0 0
M  V30 21 N 1.732 -0.5 0.0 0
M  V30 22 C 0.866 0.0 0.0 0 CFG=2
M  V30 23 C 0.866 1.0 0.0 0
M  V30 24 C 0.0 -0.5 0.0 0
M  V30 25 C 1.732 1.4999 0.0 0
M  V30 26 C 0.0 1.4999 0.0 0
M  V30 27 C 1.732 2.5 0.0 0
M  V30 28 C 0.0 2.5 0.0 0
M  V30 29 C 0.866 3.0 0.0 0
M  V30 30 F 0.866 4.0 0.0 0
M  V30 END ATOM
M  V30 BEGIN BOND
M  V30 1 1 1 2
M  V30 2 2 2 3
M  V30 3 1 2 4
M  V30 4 1 3 5
M  V30 5 1 3 6
M  V30 6 2 4 7
M  V30 7 2 5 8
M  V30 8 1 6 9
M  V30 9 1 7 10
M  V30 10 1 9 11
M  V30 11 1 9 12
M  V30 12 2 11 13
M  V30 13 1 11 14
M  V30 14 2 12 15
M  V30 15 1 13 16
M  V30 16 2 14 17
M  V30 17 2 16 18
M  V30 18 1 18 19
M  V30 19 2 19 20
M  V30 20 1 19 21
M  V30 21 1 21 22
M  V30 22 1 22 23
M  V30 23 1 22 24 CFG=1
M  V30 24 2 23 25
M  V30 25 1 23 26
M  V30 26 1 25 27
M  V30 27 2 26 28
M  V30 28 2 27 29
M  V30 29 1 29 30
M  V30 30 1 7 8
M  V30 31 1 13 15
M  V30 32 1 17 18
M  V30 33 1 28 29
M  V30 END BOND
M  V30 BEGIN COLLECTION
M  V30 MDLV30/STEABS ATOMS=(1 22)
M  V30 END COLLECTION
M  V30 END CTAB
M  END
>  <Molecule ChEMBL ID>
CHEMBL3678093

>  <Smiles>
C[C@H](NC(=O)c1ccc2c(ccn2Cc2ccc(F)cc2F)c1)c1ccc(F)cc1

>  <IC50_nM>
14

>  <Assay Description>
Lanthascreen Competitive Binding Assay: The assay was performed according to manufacturer protocol. A mixture of 5 nM GST-PPARG-LBD, 5 nM Tb-GST-antibody, 5 nM Fluormone Pan- PPAR Green, and serial dilutions of the experimental compound, beginning at 10 ׬� downwards, was added to wells of black 384-well low- volume plates (Greiner) to a total volume of 18 xL. All dilutions were made in TR-FRET assay buffer C. DMSO at 2% final concentration was used as a no-ligand control. Experiment was performed in triplicate, and incubated for 2 hours in the dark prior to assay read in Perkin Elmer ViewLux ultra HTS microplate reader. FRET signal was measured by excitation at 340 nm and emission at 520 nm for fluorescein and 490 nm for terbium.

$$$$
CHEMBL81248
Actelion Java MolfileCreator 2.0

  0  0  0  0  0  0              0 V3000
M  V30 BEGIN CTAB
M  V30 COUNTS 34 37 0 0 0
M  V30 BEGIN ATOM
M  V30 1 O 5.1961 -4.5 0.0 0
M  V30 2 C 5.1961 -3.4999 0.0 0
M  V30 3 O 4.3301 -2.9999 0.0 0
M  V30 4 C 6.0621 -3.0 0.0 0 CFG=1
M  V30 5 O 6.9282 -3.5 0.0 0
M  V30 6 C 6.0621 -1.9999 0.0 0
M  V30 7 C 6.0621 -4.0 0.0 0
M  V30 8 C 7.7942 -3.0 0.0 0
M  V30 9 C 5.1961 -1.4999 0.0 0
M  V30 10 C 7.7942 -2.0 0.0 0
M  V30 11 C 8.6602 -3.5 0.0 0
M  V30 12 C 5.1961 -0.5 0.0 0
M  V30 13 C 4.3301 -1.9999 0.0 0
M  V30 14 C 8.6602 -1.5 0.0 0
M  V30 15 C 9.5262 -3.0 0.0 0
M  V30 16 C 4.3301 0.0 0.0 0
M  V30 17 C 3.4641 -1.5 0.0 0
M  V30 18 C 9.5262 -2.0 0.0 0
M  V30 19 C 3.4641 -0.5 0.0 0
M  V30 20 O 2.598 0.0 0.0 0
M  V30 21 C 1.732 -0.5 0.0 0
M  V30 22 C 0.866 0.0 0.0 0
M  V30 23 C 0.0 -0.5 0.0 0
M  V30 24 N -0.9135 -0.0932 0.0 0
M  V30 25 C -0.1045 -1.4945 0.0 0
M  V30 26 C -1.5826 -0.8364 0.0 0
M  V30 27 O -1.0826 -1.7024 0.0 0
M  V30 28 C 0.6386 -2.1636 0.0 0
M  V30 29 C -2.5771 -0.7318 0.0 0
M  V30 30 C -2.9839 0.1816 0.0 0
M  V30 31 C -3.1649 -1.5408 0.0 0
M  V30 32 C -3.9784 0.2861 0.0 0
M  V30 33 C -4.1595 -1.4363 0.0 0
M  V30 34 C -4.5662 -0.5228 0.0 0
M  V30 END ATOM
M  V30 BEGIN BOND
M  V30 1 2 1 2
M  V30 2 1 2 3
M  V30 3 1 2 4
M  V30 4 1 4 5
M  V30 5 1 4 6
M  V30 6 1 4 7 CFG=1
M  V30 7 1 5 8
M  V30 8 1 6 9
M  V30 9 2 8 10
M  V30 10 1 8 11
M  V30 11 2 9 12
M  V30 12 1 9 13
M  V30 13 1 10 14
M  V30 14 2 11 15
M  V30 15 1 12 16
M  V30 16 2 13 17
M  V30 17 2 14 18
M  V30 18 2 16 19
M  V30 19 1 19 20
M  V30 20 1 20 21
M  V30 21 1 21 22
M  V30 22 1 22 23
M  V30 23 1 23 24
M  V30 24 2 23 25
M  V30 25 2 24 26
M  V30 26 1 25 27
M  V30 27 1 25 28
M  V30 28 1 26 29
M  V30 29 2 29 30
M  V30 30 1 29 31
M  V30 31 1 30 32
M  V30 32 2 31 33
M  V30 33 2 32 34
M  V30 34 1 15 18
M  V30 35 1 17 19
M  V30 36 1 26 27
M  V30 37 1 33 34
M  V30 END BOND
M  V30 BEGIN COLLECTION
M  V30 MDLV30/STEABS ATOMS=(1 4)
M  V30 END COLLECTION
M  V30 END CTAB
M  END
>  <Molecule ChEMBL ID>
CHEMBL81248

>  <Smiles>
Cc1oc(-c2ccccc2)nc1CCOc1ccc(C[C@](C)(Oc2ccccc2)C(=O)O)cc1

>  <IC50_nM>
14

>  <Assay Description>
Displacement of PPARgamma agonist from human PPAR gamma receptor

$$$$
CHEMBL81248
Actelion Java MolfileCreator 2.0

  0  0  0  0  0  0              0 V3000
M  V30 BEGIN CTAB
M  V30 COUNTS 34 37 0 0 0
M  V30 BEGIN ATOM
M  V30 1 O 5.1961 -4.5 0.0 0
M  V30 2 C 5.1961 -3.4999 0.0 0
M  V30 3 O 4.3301 -2.9999 0.0 0
M  V30 4 C 6.0621 -3.0 0.0 0 CFG=1
M  V30 5 O 6.9282 -3.5 0.0 0
M  V30 6 C 6.0621 -1.9999 0.0 0
M  V30 7 C 6.0621 -4.0 0.0 0
M  V30 8 C 7.7942 -3.0 0.0 0
M  V30 9 C 5.1961 -1.4999 0.0 0
M  V30 10 C 7.7942 -2.0 0.0 0
M  V30 11 C 8.6602 -3.5 0.0 0
M  V30 12 C 5.1961 -0.5 0.0 0
M  V30 13 C 4.3301 -1.9999 0.0 0
M  V30 14 C 8.6602 -1.5 0.0 0
M  V30 15 C 9.5262 -3.0 0.0 0
M  V30 16 C 4.3301 0.0 0.0 0
M  V30 17 C 3.4641 -1.5 0.0 0
M  V30 18 C 9.5262 -2.0 0.0 0
M  V30 19 C 3.4641 -0.5 0.0 0
M  V30 20 O 2.598 0.0 0.0 0
M  V30 21 C 1.732 -0.5 0.0 0
M  V30 22 C 0.866 0.0 0.0 0
M  V30 23 C 0.0 -0.5 0.0 0
M  V30 24 N -0.9135 -0.0932 0.0 0
M  V30 25 C -0.1045 -1.4945 0.0 0
M  V30 26 C -1.5826 -0.8364 0.0 0
M  V30 27 O -1.0826 -1.7024 0.0 0
M  V30 28 C 0.6386 -2.1636 0.0 0
M  V30 29 C -2.5771 -0.7318 0.0 0
M  V30 30 C -2.9839 0.1816 0.0 0
M  V30 31 C -3.1649 -1.5408 0.0 0
M  V30 32 C -3.9784 0.2861 0.0 0
M  V30 33 C -4.1595 -1.4363 0.0 0
M  V30 34 C -4.5662 -0.5228 0.0 0
M  V30 END ATOM
M  V30 BEGIN BOND
M  V30 1 2 1 2
M  V30 2 1 2 3
M  V30 3 1 2 4
M  V30 4 1 4 5
M  V30 5 1 4 6
M  V30 6 1 4 7 CFG=1
M  V30 7 1 5 8
M  V30 8 1 6 9
M  V30 9 2 8 10
M  V30 10 1 8 11
M  V30 11 2 9 12
M  V30 12 1 9 13
M  V30 13 1 10 14
M  V30 14 2 11 15
M  V30 15 1 12 16
M  V30 16 2 13 17
M  V30 17 2 14 18
M  V30 18 2 16 19
M  V30 19 1 19 20
M  V30 20 1 20 21
M  V30 21 1 21 22
M  V30 22 1 22 23
M  V30 23 1 23 24
M  V30 24 2 23 25
M  V30 25 2 24 26
M  V30 26 1 25 27
M  V30 27 1 25 28
M  V30 28 1 26 29
M  V30 29 2 29 30
M  V30 30 1 29 31
M  V30 31 1 30 32
M  V30 32 2 31 33
M  V30 33 2 32 34
M  V30 34 1 15 18
M  V30 35 1 17 19
M  V30 36 1 26 27
M  V30 37 1 33 34
M  V30 END BOND
M  V30 BEGIN COLLECTION
M  V30 MDLV30/STEABS ATOMS=(1 4)
M  V30 END COLLECTION
M  V30 END CTAB
M  END
>  <Molecule ChEMBL ID>
CHEMBL81248

>  <Smiles>
Cc1oc(-c2ccccc2)nc1CCOc1ccc(C[C@](C)(Oc2ccccc2)C(=O)O)cc1

>  <IC50_nM>
14

>  <Assay Description>
Agonist activity at PPARgamma

$$$$
CHEMBL3695771
Actelion Java MolfileCreator 2.0

  0  0  0  0  0  0              0 V3000
M  V30 BEGIN CTAB
M  V30 COUNTS 38 42 0 0 0
M  V30 BEGIN ATOM
M  V30 1 Br 9.0932 -3.0 0.0 0
M  V30 2 C 7.7942 -2.25 0.0 0
M  V30 3 C 7.7942 -0.75 0.0 0
M  V30 4 C 6.4951 -2.9999 0.0 0
M  V30 5 C 6.4951 0.0 0.0 0
M  V30 6 C 5.1961 -2.25 0.0 0
M  V30 7 C 5.1961 -0.75 0.0 0
M  V30 8 C 3.8971 0.0 0.0 0
M  V30 9 N 2.598 -0.75 0.0 0
M  V30 10 C 1.299 0.0 0.0 0
M  V30 11 O 1.299 1.5 0.0 0
M  V30 12 C 0.0 -0.75 0.0 0
M  V30 13 C 0.0 -2.25 0.0 0
M  V30 14 C -1.299 0.0 0.0 0
M  V30 15 C -1.299 -2.9999 0.0 0
M  V30 16 C -2.598 -0.7499 0.0 0
M  V30 17 C -2.598 -2.2499 0.0 0
M  V30 18 C -1.6109 -4.4672 0.0 0
M  V30 19 N -3.7127 -3.2536 0.0 0
M  V30 20 C -3.1026 -4.624 0.0 0
M  V30 21 C -0.6072 -5.5819 0.0 0
M  V30 22 C -5.18 -2.9418 0.0 0
M  V30 23 C -3.8526 -5.923 0.0 0
M  V30 24 C -6.1837 -4.0565 0.0 0
M  V30 25 C -7.6509 -3.7446 0.0 0
M  V30 26 C -5.7201 -5.4831 0.0 0
M  V30 27 C -8.6546 -4.8593 0.0 0
M  V30 28 C -6.7238 -6.5978 0.0 0
M  V30 29 C -8.1911 -6.2859 0.0 0
M  V30 30 C -9.1947 -7.4006 0.0 0
M  V30 31 C -10.662 -7.0888 0.0 0
M  V30 32 C -8.7312 -8.8272 0.0 0
M  V30 33 C -11.1255 -5.6622 0.0 0
M  V30 34 C -11.6657 -8.2035 0.0 0
M  V30 35 C -9.7349 -9.9419 0.0 0
M  V30 36 O -10.1218 -4.5475 0.0 0
M  V30 37 O -12.5927 -5.3503 0.0 0
M  V30 38 C -11.2021 -9.6301 0.0 0
M  V30 END ATOM
M  V30 BEGIN BOND
M  V30 1 1 1 2
M  V30 2 2 2 3
M  V30 3 1 2 4
M  V30 4 1 3 5
M  V30 5 2 4 6
M  V30 6 2 5 7
M  V30 7 1 7 8
M  V30 8 1 8 9
M  V30 9 1 9 10
M  V30 10 2 10 11
M  V30 11 1 10 12
M  V30 12 2 12 13
M  V30 13 1 12 14
M  V30 14 1 13 15
M  V30 15 2 14 16
M  V30 16 2 15 17
M  V30 17 1 15 18
M  V30 18 1 17 19
M  V30 19 2 18 20
M  V30 20 1 18 21
M  V30 21 1 19 22
M  V30 22 1 20 23
M  V30 23 1 22 24
M  V30 24 2 24 25
M  V30 25 1 24 26
M  V30 26 1 25 27
M  V30 27 2 26 28
M  V30 28 2 27 29
M  V30 29 1 29 30
M  V30 30 2 30 31
M  V30 31 1 30 32
M  V30 32 1 31 33
M  V30 33 1 31 34
M  V30 34 2 32 35
M  V30 35 2 33 36
M  V30 36 1 33 37
M  V30 37 2 34 38
M  V30 38 1 6 7
M  V30 39 1 16 17
M  V30 40 1 19 20
M  V30 41 1 28 29
M  V30 42 1 35 38
M  V30 END BOND
M  V30 END CTAB
M  END
>  <Molecule ChEMBL ID>
CHEMBL3695771

>  <Smiles>
Cc1c(C)n(Cc2ccc(-c3ccccc3C(=O)O)cc2)c2ccc(C(=O)NCc3ccc(Br)cc3)cc12

>  <IC50_nM>
14

>  <Assay Description>
Binding affinity to GST-tagged PPAR-gamma-LBD (unknown origin) after 2 hrs by Lantha screen assay using fluormone Pan-PPAR green probe

$$$$
CHEMBL59132
Actelion Java MolfileCreator 2.0

  0  0  0  0  0  0              0 V3000
M  V30 BEGIN CTAB
M  V30 COUNTS 29 32 0 0 0
M  V30 BEGIN ATOM
M  V30 1 S 5.2531 -3.5877 0.0 0
M  V30 2 C 5.5621 -4.5388 0.0 0
M  V30 3 C 6.0621 -3.0 0.0 0 CFG=2
M  V30 4 O 4.9743 -5.3478 0.0 0
M  V30 5 N 6.5621 -4.5388 0.0 0
M  V30 6 C 6.8711 -3.5877 0.0 0
M  V30 7 C 6.0621 -1.9999 0.0 0
M  V30 8 O 7.8222 -3.2787 0.0 0
M  V30 9 C 5.1961 -1.4999 0.0 0
M  V30 10 C 5.1961 -0.5 0.0 0
M  V30 11 C 4.3301 -1.9999 0.0 0
M  V30 12 C 4.3301 0.0 0.0 0
M  V30 13 C 3.4641 -1.5 0.0 0
M  V30 14 C 3.4641 -0.5 0.0 0
M  V30 15 O 2.598 0.0 0.0 0
M  V30 16 C 1.732 -0.5 0.0 0
M  V30 17 C 0.866 0.0 0.0 0
M  V30 18 C 0.0 -0.5 0.0 0
M  V30 19 N -0.9135 -0.0932 0.0 0
M  V30 20 C -0.1045 -1.4945 0.0 0
M  V30 21 C -1.5826 -0.8364 0.0 0
M  V30 22 O -1.0826 -1.7024 0.0 0
M  V30 23 C 0.6386 -2.1636 0.0 0
M  V30 24 C -2.5771 -0.7318 0.0 0
M  V30 25 C -2.9839 0.1816 0.0 0
M  V30 26 C -3.1649 -1.5408 0.0 0
M  V30 27 C -3.9784 0.2861 0.0 0
M  V30 28 C -4.1595 -1.4363 0.0 0
M  V30 29 C -4.5662 -0.5228 0.0 0
M  V30 END ATOM
M  V30 BEGIN BOND
M  V30 1 1 1 2
M  V30 2 1 1 3
M  V30 3 2 2 4
M  V30 4 1 2 5
M  V30 5 1 3 6
M  V30 6 1 3 7 CFG=1
M  V30 7 2 6 8
M  V30 8 1 7 9
M  V30 9 2 9 10
M  V30 10 1 9 11
M  V30 11 1 10 12
M  V30 12 2 11 13
M  V30 13 2 12 14
M  V30 14 1 14 15
M  V30 15 1 15 16
M  V30 16 1 16 17
M  V30 17 1 17 18
M  V30 18 1 18 19
M  V30 19 2 18 20
M  V30 20 2 19 21
M  V30 21 1 20 22
M  V30 22 1 20 23
M  V30 23 1 21 24
M  V30 24 2 24 25
M  V30 25 1 24 26
M  V30 26 1 25 27
M  V30 27 2 26 28
M  V30 28 2 27 29
M  V30 29 1 5 6
M  V30 30 1 13 14
M  V30 31 1 21 22
M  V30 32 1 28 29
M  V30 END BOND
M  V30 BEGIN COLLECTION
M  V30 MDLV30/STERAC1 ATOMS=(1 3)
M  V30 END COLLECTION
M  V30 END CTAB
M  END
>  <Molecule ChEMBL ID>
CHEMBL59132

>  <Smiles>
Cc1oc(-c2ccccc2)nc1CCOc1ccc(CC2SC(=O)NC2=O)cc1

>  <IC50_nM>
14

>  <Assay Description>
Binding affinity at human peroxidase proliferator activated receptor gamma (hPPARgamma)

$$$$
CHEMBL81248
Actelion Java MolfileCreator 2.0

  0  0  0  0  0  0              0 V3000
M  V30 BEGIN CTAB
M  V30 COUNTS 34 37 0 0 0
M  V30 BEGIN ATOM
M  V30 1 O 5.1961 -4.5 0.0 0
M  V30 2 C 5.1961 -3.4999 0.0 0
M  V30 3 O 4.3301 -2.9999 0.0 0
M  V30 4 C 6.0621 -3.0 0.0 0 CFG=1
M  V30 5 O 6.9282 -3.5 0.0 0
M  V30 6 C 6.0621 -1.9999 0.0 0
M  V30 7 C 6.0621 -4.0 0.0 0
M  V30 8 C 7.7942 -3.0 0.0 0
M  V30 9 C 5.1961 -1.4999 0.0 0
M  V30 10 C 7.7942 -2.0 0.0 0
M  V30 11 C 8.6602 -3.5 0.0 0
M  V30 12 C 5.1961 -0.5 0.0 0
M  V30 13 C 4.3301 -1.9999 0.0 0
M  V30 14 C 8.6602 -1.5 0.0 0
M  V30 15 C 9.5262 -3.0 0.0 0
M  V30 16 C 4.3301 0.0 0.0 0
M  V30 17 C 3.4641 -1.5 0.0 0
M  V30 18 C 9.5262 -2.0 0.0 0
M  V30 19 C 3.4641 -0.5 0.0 0
M  V30 20 O 2.598 0.0 0.0 0
M  V30 21 C 1.732 -0.5 0.0 0
M  V30 22 C 0.866 0.0 0.0 0
M  V30 23 C 0.0 -0.5 0.0 0
M  V30 24 N -0.9135 -0.0932 0.0 0
M  V30 25 C -0.1045 -1.4945 0.0 0
M  V30 26 C -1.5826 -0.8364 0.0 0
M  V30 27 O -1.0826 -1.7024 0.0 0
M  V30 28 C 0.6386 -2.1636 0.0 0
M  V30 29 C -2.5771 -0.7318 0.0 0
M  V30 30 C -2.9839 0.1816 0.0 0
M  V30 31 C -3.1649 -1.5408 0.0 0
M  V30 32 C -3.9784 0.2861 0.0 0
M  V30 33 C -4.1595 -1.4363 0.0 0
M  V30 34 C -4.5662 -0.5228 0.0 0
M  V30 END ATOM
M  V30 BEGIN BOND
M  V30 1 2 1 2
M  V30 2 1 2 3
M  V30 3 1 2 4
M  V30 4 1 4 5
M  V30 5 1 4 6
M  V30 6 1 4 7 CFG=1
M  V30 7 1 5 8
M  V30 8 1 6 9
M  V30 9 2 8 10
M  V30 10 1 8 11
M  V30 11 2 9 12
M  V30 12 1 9 13
M  V30 13 1 10 14
M  V30 14 2 11 15
M  V30 15 1 12 16
M  V30 16 2 13 17
M  V30 17 2 14 18
M  V30 18 2 16 19
M  V30 19 1 19 20
M  V30 20 1 20 21
M  V30 21 1 21 22
M  V30 22 1 22 23
M  V30 23 1 23 24
M  V30 24 2 23 25
M  V30 25 2 24 26
M  V30 26 1 25 27
M  V30 27 1 25 28
M  V30 28 1 26 29
M  V30 29 2 29 30
M  V30 30 1 29 31
M  V30 31 1 30 32
M  V30 32 2 31 33
M  V30 33 2 32 34
M  V30 34 1 15 18
M  V30 35 1 17 19
M  V30 36 1 26 27
M  V30 37 1 33 34
M  V30 END BOND
M  V30 BEGIN COLLECTION
M  V30 MDLV30/STEABS ATOMS=(1 4)
M  V30 END COLLECTION
M  V30 END CTAB
M  END
>  <Molecule ChEMBL ID>
CHEMBL81248

>  <Smiles>
Cc1oc(-c2ccccc2)nc1CCOc1ccc(C[C@](C)(Oc2ccccc2)C(=O)O)cc1

>  <IC50_nM>
14

>  <Assay Description>
Agonist activity at PPARgamma

$$$$
CHEMBL1946753
Actelion Java MolfileCreator 2.0

  0  0  0  0  0  0              0 V3000
M  V30 BEGIN CTAB
M  V30 COUNTS 38 42 0 0 0
M  V30 BEGIN ATOM
M  V30 1 Cl 4.3301 0.9999 0.0 0
M  V30 2 C 4.3301 0.0 0.0 0
M  V30 3 C 3.4641 -0.5 0.0 0
M  V30 4 C 5.1961 -0.5 0.0 0
M  V30 5 O 2.598 0.0 0.0 0
M  V30 6 C 3.4641 -1.5 0.0 0
M  V30 7 C 5.1961 -1.5 0.0 0
M  V30 8 C 1.732 -0.5 0.0 0 CFG=1
M  V30 9 C 4.3301 -2.0 0.0 0
M  V30 10 C 0.866 0.0 0.0 0
M  V30 11 C 1.732 -1.5 0.0 0
M  V30 12 C 4.3301 -3.0 0.0 0
M  V30 13 O 0.866 1.0 0.0 0
M  V30 14 O 0.0 -0.5 0.0 0
M  V30 15 N 5.1961 -3.5 0.0 0
M  V30 16 C 5.3006 -4.4945 0.0 0
M  V30 17 C 6.1096 -3.0932 0.0 0
M  V30 18 O 4.5575 -5.1636 0.0 0
M  V30 19 N 6.2788 -4.7024 0.0 0
M  V30 20 C 6.7788 -3.8364 0.0 0
M  V30 21 C 6.4187 -2.1422 0.0 0
M  V30 22 C 6.6855 -5.6159 0.0 0
M  V30 23 C 7.7569 -3.6284 0.0 0
M  V30 24 C 7.3968 -1.9342 0.0 0
M  V30 25 N 6.1855 -6.482 0.0 0
M  V30 26 C 7.6637 -5.8238 0.0 0
M  V30 27 C 8.0659 -2.6774 0.0 0
M  V30 28 C 7.7058 -0.9832 0.0 0
M  V30 29 O 6.8546 -7.2251 0.0 0
M  V30 30 C 7.7682 -6.8184 0.0 0
M  V30 31 C 8.4727 -5.2361 0.0 0
M  V30 32 F 6.7548 -0.6742 0.0 0
M  V30 33 F 8.0148 -0.0321 0.0 0
M  V30 34 F 8.6569 -1.2922 0.0 0
M  V30 35 C 8.6817 -7.2251 0.0 0
M  V30 36 C 9.3862 -5.6428 0.0 0
M  V30 37 C 9.4908 -6.6373 0.0 0
M  V30 38 C 10.4043 -7.0441 0.0 0
M  V30 END ATOM
M  V30 BEGIN BOND
M  V30 1 1 1 2
M  V30 2 2 2 3
M  V30 3 1 2 4
M  V30 4 1 3 5
M  V30 5 1 3 6
M  V30 6 2 4 7
M  V30 7 1 5 8
M  V30 8 2 6 9
M  V30 9 1 8 10
M  V30 10 1 8 11 CFG=3
M  V30 11 1 9 12
M  V30 12 2 10 13
M  V30 13 1 10 14
M  V30 14 1 12 15
M  V30 15 1 15 16
M  V30 16 1 15 17
M  V30 17 2 16 18
M  V30 18 1 16 19
M  V30 19 2 17 20
M  V30 20 1 17 21
M  V30 21 1 19 22
M  V30 22 1 20 23
M  V30 23 2 21 24
M  V30 24 2 22 25
M  V30 25 1 22 26
M  V30 26 2 23 27
M  V30 27 1 24 28
M  V30 28 1 25 29
M  V30 29 2 26 30
M  V30 30 1 26 31
M  V30 31 1 28 32
M  V30 32 1 28 33
M  V30 33 1 28 34
M  V30 34 1 30 35
M  V30 35 2 31 36
M  V30 36 2 35 37
M  V30 37 1 37 38
M  V30 38 1 7 9
M  V30 39 1 19 20
M  V30 40 1 24 27
M  V30 41 1 29 30
M  V30 42 1 36 37
M  V30 END BOND
M  V30 BEGIN COLLECTION
M  V30 MDLV30/STEABS ATOMS=(1 8)
M  V30 END COLLECTION
M  V30 END CTAB
M  END
>  <Molecule ChEMBL ID>
CHEMBL1946753

>  <Smiles>
Cc1ccc2c(-n3c(=O)n(Cc4ccc(Cl)c(O[C@H](C)C(=O)O)c4)c4cc(C(F)(F)F)ccc43)noc2c1

>  <IC50_nM>
14.2

>  <Assay Description>
Binding affinity to human PPARgamma by scintillation proximity assay

$$$$
CHEMBL393938
Actelion Java MolfileCreator 2.0

  0  0  0  0  0  0              0 V3000
M  V30 BEGIN CTAB
M  V30 COUNTS 36 38 0 0 0
M  V30 BEGIN ATOM
M  V30 1 Cl 6.4951 1.5 0.0 0
M  V30 2 C 6.4951 0.0 0.0 0
M  V30 3 C 5.1961 -0.75 0.0 0
M  V30 4 C 7.7942 -0.75 0.0 0
M  V30 5 C 3.8971 0.0 0.0 0
M  V30 6 C 5.1961 -2.25 0.0 0
M  V30 7 C 7.7942 -2.25 0.0 0
M  V30 8 O 3.8971 1.5 0.0 0
M  V30 9 N 2.598 -0.75 0.0 0
M  V30 10 C 6.4951 -3.0 0.0 0
M  V30 11 C 9.0932 -3.0 0.0 0
M  V30 12 C 1.299 0.0 0.0 0
M  V30 13 F 9.8432 -1.7009 0.0 0
M  V30 14 F 10.3923 -3.75 0.0 0
M  V30 15 F 8.3432 -4.299 0.0 0
M  V30 16 C 0.0 -0.75 0.0 0
M  V30 17 C -1.299 0.0 0.0 0
M  V30 18 C 0.0 -2.25 0.0 0
M  V30 19 C -2.598 -0.75 0.0 0
M  V30 20 C -1.299 -3.0 0.0 0
M  V30 21 O -3.8971 0.0 0.0 0
M  V30 22 C -2.598 -2.25 0.0 0
M  V30 23 C -5.1961 -0.75 0.0 0
M  V30 24 C -6.4951 0.0 0.0 0
M  V30 25 C -5.1961 -2.25 0.0 0
M  V30 26 C -7.7942 -0.75 0.0 0
M  V30 27 C -6.4951 -3.0 0.0 0
M  V30 28 C -7.7942 -2.25 0.0 0
M  V30 29 C -9.0932 0.0 0.0 0
M  V30 30 O -9.0932 -3.0 0.0 0
M  V30 31 C -9.0932 -4.5 0.0 0
M  V30 32 C -10.3923 -5.25 0.0 0
M  V30 33 C -8.3433 -5.799 0.0 0
M  V30 34 C -7.5933 -4.4999 0.0 0
M  V30 35 O -11.6913 -4.5 0.0 0
M  V30 36 O -10.3923 -6.75 0.0 0
M  V30 END ATOM
M  V30 BEGIN BOND
M  V30 1 1 1 2
M  V30 2 2 2 3
M  V30 3 1 2 4
M  V30 4 1 3 5
M  V30 5 1 3 6
M  V30 6 2 4 7
M  V30 7 2 5 8
M  V30 8 1 5 9
M  V30 9 2 6 10
M  V30 10 1 7 11
M  V30 11 1 9 12
M  V30 12 1 11 13
M  V30 13 1 11 14
M  V30 14 1 11 15
M  V30 15 1 12 16
M  V30 16 2 16 17
M  V30 17 1 16 18
M  V30 18 1 17 19
M  V30 19 2 18 20
M  V30 20 1 19 21
M  V30 21 2 19 22
M  V30 22 1 21 23
M  V30 23 2 23 24
M  V30 24 1 23 25
M  V30 25 1 24 26
M  V30 26 2 25 27
M  V30 27 2 26 28
M  V30 28 1 26 29
M  V30 29 1 28 30
M  V30 30 1 30 31
M  V30 31 1 31 32
M  V30 32 1 31 33
M  V30 33 1 31 34
M  V30 34 2 32 35
M  V30 35 1 32 36
M  V30 36 1 7 10
M  V30 37 1 20 22
M  V30 38 1 27 28
M  V30 END BOND
M  V30 END CTAB
M  END
>  <Molecule ChEMBL ID>
CHEMBL393938

>  <Smiles>
Cc1cc(Oc2cccc(CNC(=O)c3ccc(C(F)(F)F)cc3Cl)c2)ccc1OC(C)(C)C(=O)O

>  <IC50_nM>
15

>  <Assay Description>
Displacement of [3H]2-methyl-2-(4-{3-{propyl-(5-pyridin-2-yl-thiophene-2-sulfonyl)-amino}-propyl}-phenoxy)-propionic acid from human PPARgamma

$$$$
CHEMBL3699416
Actelion Java MolfileCreator 2.0

  0  0  0  0  0  0              0 V3000
M  V30 BEGIN CTAB
M  V30 COUNTS 39 43 0 0 0
M  V30 BEGIN ATOM
M  V30 1 Br 6.0621 0.0 0.0 0
M  V30 2 C 5.1961 -0.5 0.0 0
M  V30 3 N 4.3301 0.0 0.0 0
M  V30 4 C 5.1961 -1.4999 0.0 0
M  V30 5 C 3.4641 -0.5 0.0 0
M  V30 6 C 4.3301 -1.9999 0.0 0
M  V30 7 C 3.4641 -1.4999 0.0 0
M  V30 8 C 2.598 0.0 0.0 0 CFG=1
M  V30 9 N 1.732 -0.5 0.0 0
M  V30 10 C 2.598 1.0 0.0 0
M  V30 11 C 0.866 0.0 0.0 0
M  V30 12 O 0.866 1.0 0.0 0
M  V30 13 C 0.0 -0.5 0.0 0
M  V30 14 C 0.0 -1.4999 0.0 0
M  V30 15 C -0.866 0.0 0.0 0
M  V30 16 C -0.866 -1.9999 0.0 0
M  V30 17 C -1.732 -0.4999 0.0 0
M  V30 18 C -1.732 -1.4999 0.0 0
M  V30 19 C -1.0739 -2.9781 0.0 0
M  V30 20 N -2.4751 -2.1691 0.0 0
M  V30 21 C -2.0684 -3.0826 0.0 0
M  V30 22 C -0.4048 -3.7212 0.0 0
M  V30 23 C -3.4533 -1.9612 0.0 0
M  V30 24 C -2.5684 -3.9487 0.0 0
M  V30 25 C -4.1224 -2.7043 0.0 0
M  V30 26 C -5.1006 -2.4964 0.0 0
M  V30 27 C -3.8134 -3.6554 0.0 0
M  V30 28 C -5.7697 -3.2395 0.0 0
M  V30 29 C -4.4825 -4.3985 0.0 0
M  V30 30 C -5.4607 -4.1906 0.0 0
M  V30 31 C -6.1298 -4.9337 0.0 0
M  V30 32 C -7.108 -4.7258 0.0 0
M  V30 33 C -5.8208 -5.8848 0.0 0
M  V30 34 C -7.417 -3.7748 0.0 0
M  V30 35 C -7.7771 -5.469 0.0 0
M  V30 36 C -6.4899 -6.6279 0.0 0
M  V30 37 O -6.7478 -3.0316 0.0 0
M  V30 38 O -8.3951 -3.5669 0.0 0
M  V30 39 C -7.4681 -6.42 0.0 0
M  V30 END ATOM
M  V30 BEGIN BOND
M  V30 1 1 1 2
M  V30 2 2 2 3
M  V30 3 1 2 4
M  V30 4 1 3 5
M  V30 5 2 4 6
M  V30 6 2 5 7
M  V30 7 1 5 8
M  V30 8 1 8 9
M  V30 9 1 8 10 CFG=1
M  V30 10 1 9 11
M  V30 11 2 11 12
M  V30 12 1 11 13
M  V30 13 2 13 14
M  V30 14 1 13 15
M  V30 15 1 14 16
M  V30 16 2 15 17
M  V30 17 2 16 18
M  V30 18 1 16 19
M  V30 19 1 18 20
M  V30 20 2 19 21
M  V30 21 1 19 22
M  V30 22 1 20 23
M  V30 23 1 21 24
M  V30 24 1 23 25
M  V30 25 2 25 26
M  V30 26 1 25 27
M  V30 27 1 26 28
M  V30 28 2 27 29
M  V30 29 2 28 30
M  V30 30 1 30 31
M  V30 31 2 31 32
M  V30 32 1 31 33
M  V30 33 1 32 34
M  V30 34 1 32 35
M  V30 35 2 33 36
M  V30 36 2 34 37
M  V30 37 1 34 38
M  V30 38 2 35 39
M  V30 39 1 6 7
M  V30 40 1 17 18
M  V30 41 1 20 21
M  V30 42 1 29 30
M  V30 43 1 36 39
M  V30 END BOND
M  V30 BEGIN COLLECTION
M  V30 MDLV30/STEABS ATOMS=(1 8)
M  V30 END COLLECTION
M  V30 END CTAB
M  END
>  <Molecule ChEMBL ID>
CHEMBL3699416

>  <Smiles>
Cc1c(C)n(Cc2ccc(-c3ccccc3C(=O)O)cc2)c2ccc(C(=O)N[C@@H](C)c3cccc(Br)n3)cc12

>  <IC50_nM>
15

>  <Assay Description>
Lanthascreen Competitive Binding Assay: The assay was performed according to manufacturer protocol. A mixture of nM GST-PPARG-LBD, 5 nM Tb-GST-antibody, 5 nM Fluormone Pan-PPAR Green, and serial dilutions of the experimental compound, beginning at 10 ׬M downwards, was added to wells of black 384-well low-volume plates (Greiner) to a total volume of 18 ׬L. All dilutions were made in TR-FRET assay buffer C. DMSO at 2% final concentration was used as a no-ligand control. Experiment was performed in triplicate, and incubated for 2 hours in the dark prior to assay read in Perkin Elmer ViewLux ultra HTS microplate reader. FRET signal was measured by excitation at 340 nm and emission at 520 nm for fluorescein and 490 nm for terbium. Fold change over DMSO was calculated using GraphPad Prism Software (La Jolla, Calif.) by calculating 520 nm/490 nm ratio. Graphs were plotted as fold change of FRET signal for compound treatment over DMSO-only control.

$$$$
CHEMBL264385
Actelion Java MolfileCreator 2.0

  0  0  0  0  0  0              0 V3000
M  V30 BEGIN CTAB
M  V30 COUNTS 34 37 0 0 0
M  V30 BEGIN ATOM
M  V30 1 O 5.1961 -4.5 0.0 0
M  V30 2 C 5.1961 -3.4999 0.0 0
M  V30 3 O 4.3301 -2.9999 0.0 0
M  V30 4 C 6.0621 -3.0 0.0 0 CFG=1
M  V30 5 O 6.9282 -3.5 0.0 0
M  V30 6 C 6.0621 -1.9999 0.0 0
M  V30 7 C 6.0621 -4.0 0.0 0
M  V30 8 C 7.7942 -3.0 0.0 0
M  V30 9 C 5.1961 -1.4999 0.0 0
M  V30 10 C 7.7942 -2.0 0.0 0
M  V30 11 C 8.6602 -3.5 0.0 0
M  V30 12 C 5.1961 -0.5 0.0 0
M  V30 13 C 4.3301 -1.9999 0.0 0
M  V30 14 C 8.6602 -1.5 0.0 0
M  V30 15 C 9.5262 -3.0 0.0 0
M  V30 16 C 4.3301 0.0 0.0 0
M  V30 17 C 3.4641 -1.5 0.0 0
M  V30 18 C 9.5262 -2.0 0.0 0
M  V30 19 C 3.4641 -0.5 0.0 0
M  V30 20 O 2.598 0.0 0.0 0
M  V30 21 C 1.732 -0.5 0.0 0
M  V30 22 C 0.866 0.0 0.0 0
M  V30 23 C 0.0 -0.5 0.0 0
M  V30 24 N -0.9135 -0.0932 0.0 0
M  V30 25 C -0.1045 -1.4945 0.0 0
M  V30 26 C -1.5826 -0.8364 0.0 0
M  V30 27 O -1.0826 -1.7024 0.0 0
M  V30 28 C 0.6386 -2.1636 0.0 0
M  V30 29 C -2.5771 -0.7318 0.0 0
M  V30 30 C -2.9839 0.1816 0.0 0
M  V30 31 C -3.1649 -1.5408 0.0 0
M  V30 32 C -3.9784 0.2861 0.0 0
M  V30 33 C -4.1595 -1.4363 0.0 0
M  V30 34 C -4.5662 -0.5228 0.0 0
M  V30 END ATOM
M  V30 BEGIN BOND
M  V30 1 2 1 2
M  V30 2 1 2 3
M  V30 3 1 2 4
M  V30 4 1 4 5
M  V30 5 1 4 6
M  V30 6 1 4 7 CFG=1
M  V30 7 1 5 8
M  V30 8 1 6 9
M  V30 9 2 8 10
M  V30 10 1 8 11
M  V30 11 2 9 12
M  V30 12 1 9 13
M  V30 13 1 10 14
M  V30 14 2 11 15
M  V30 15 1 12 16
M  V30 16 2 13 17
M  V30 17 2 14 18
M  V30 18 2 16 19
M  V30 19 1 19 20
M  V30 20 1 20 21
M  V30 21 1 21 22
M  V30 22 1 22 23
M  V30 23 1 23 24
M  V30 24 2 23 25
M  V30 25 2 24 26
M  V30 26 1 25 27
M  V30 27 1 25 28
M  V30 28 1 26 29
M  V30 29 1 29 30
M  V30 30 1 29 31
M  V30 31 1 30 32
M  V30 32 1 31 33
M  V30 33 1 32 34
M  V30 34 1 15 18
M  V30 35 1 17 19
M  V30 36 1 26 27
M  V30 37 1 33 34
M  V30 END BOND
M  V30 BEGIN COLLECTION
M  V30 MDLV30/STEABS ATOMS=(1 4)
M  V30 END COLLECTION
M  V30 END CTAB
M  END
>  <Molecule ChEMBL ID>
CHEMBL264385

>  <Smiles>
Cc1oc(C2CCCCC2)nc1CCOc1ccc(C[C@](C)(Oc2ccccc2)C(=O)O)cc1

>  <IC50_nM>
15

>  <Assay Description>
Displacement of PPARgamma agonist from human PPAR gamma receptor

$$$$
CHEMBL1933842
Actelion Java MolfileCreator 2.0

  0  0  0  0  0  0              0 V3000
M  V30 BEGIN CTAB
M  V30 COUNTS 34 35 0 0 0
M  V30 BEGIN ATOM
M  V30 1 Cl 13.9972 -5.0117 0.0 0
M  V30 2 C 12.5706 -4.5482 0.0 0
M  V30 3 C 12.2588 -3.081 0.0 0
M  V30 4 C 11.4559 -5.5519 0.0 0
M  V30 5 C 10.8322 -2.6175 0.0 0
M  V30 6 C 13.3735 -2.0773 0.0 0
M  V30 7 C 10.0293 -5.0884 0.0 0
M  V30 8 C 9.7175 -3.6211 0.0 0
M  V30 9 N 13.0616 -0.6101 0.0 0
M  V30 10 C 8.9146 -6.0921 0.0 0
M  V30 11 N 14.0653 0.5046 0.0 0
M  V30 12 C 11.6913 0.0 0.0 0
M  V30 13 F 9.9183 -7.2068 0.0 0
M  V30 14 F 7.7999 -7.0958 0.0 0
M  V30 15 F 7.9109 -4.9773 0.0 0
M  V30 16 C 13.3153 1.8036 0.0 0
M  V30 17 C 11.8481 1.4917 0.0 0
M  V30 18 C 10.3923 -0.75 0.0 0
M  V30 19 O 13.9254 3.1739 0.0 0
M  V30 20 C 9.0932 0.0 0.0 0
M  V30 21 C 15.4172 3.3307 0.0 0
M  V30 22 C 7.7942 -0.75 0.0 0
M  V30 23 C 16.2989 2.1172 0.0 0
M  V30 24 C 16.0273 4.701 0.0 0
M  V30 25 O 7.7942 -2.25 0.0 0
M  V30 26 N 6.4951 0.0 0.0 0
M  V30 27 S 5.1961 -0.75 0.0 0
M  V30 28 O 4.4461 -2.049 0.0 0
M  V30 29 O 5.9461 -2.049 0.0 0
M  V30 30 C 3.8971 0.0 0.0 0
M  V30 31 C 2.598 -0.75 0.0 0
M  V30 32 C 1.299 0.0 0.0 0
M  V30 33 C 1.299 1.5 0.0 0
M  V30 34 C 0.0 -0.75 0.0 0
M  V30 END ATOM
M  V30 BEGIN BOND
M  V30 1 1 1 2
M  V30 2 2 2 3
M  V30 3 1 2 4
M  V30 4 1 3 5
M  V30 5 1 3 6
M  V30 6 2 4 7
M  V30 7 2 5 8
M  V30 8 1 6 9
M  V30 9 1 7 10
M  V30 10 1 9 11
M  V30 11 1 9 12
M  V30 12 1 10 13
M  V30 13 1 10 14
M  V30 14 1 10 15
M  V30 15 2 11 16
M  V30 16 2 12 17
M  V30 17 1 12 18
M  V30 18 1 16 19
M  V30 19 2 18 20
M  V30 20 1 19 21
M  V30 21 1 20 22
M  V30 22 1 21 23
M  V30 23 1 21 24
M  V30 24 2 22 25
M  V30 25 1 22 26
M  V30 26 1 26 27
M  V30 27 2 27 28
M  V30 28 2 27 29
M  V30 29 1 27 30
M  V30 30 1 30 31
M  V30 31 1 31 32
M  V30 32 1 32 33
M  V30 33 1 32 34
M  V30 34 1 7 8
M  V30 35 1 16 17
M  V30 END BOND
M  V30 END CTAB
M  END
>  <Molecule ChEMBL ID>
CHEMBL1933842

>  <Smiles>
CC(C)CCS(=O)(=O)NC(=O)/C=C/c1cc(OC(C)C)nn1Cc1ccc(C(F)(F)F)cc1Cl

>  <IC50_nM>
15

>  <Assay Description>
Displacement of [3H]-AD-5061 from human GST-tagged PPARgamma

$$$$
CHEMBL213602
Actelion Java MolfileCreator 2.0

  0  0  0  0  0  0              0 V3000
M  V30 BEGIN CTAB
M  V30 COUNTS 34 37 0 0 0
M  V30 BEGIN ATOM
M  V30 1 O 4.3301 0.0 0.0 0
M  V30 2 C 3.4641 -0.5 0.0 0
M  V30 3 O 3.4641 -1.5 0.0 0
M  V30 4 C 2.598 0.0 0.0 0 CFG=1
M  V30 5 O 1.732 -0.5 0.0 0
M  V30 6 C 2.598 1.0 0.0 0
M  V30 7 C 0.866 0.0 0.0 0
M  V30 8 C 1.732 1.5 0.0 0
M  V30 9 C 0.0 -0.5 0.0 0
M  V30 10 C 0.866 1.0 0.0 0
M  V30 11 C 1.732 2.5 0.0 0
M  V30 12 C 0.0 1.5 0.0 0
M  V30 13 C 0.866 3.0 0.0 0
M  V30 14 C 0.0 2.5 0.0 0
M  V30 15 C -0.951 1.1909 0.0 0
M  V30 16 N -0.951 2.809 0.0 0
M  V30 17 C -1.5388 2.0 0.0 0
M  V30 18 C -1.26 3.76 0.0 0
M  V30 19 C -2.2382 3.9679 0.0 0
M  V30 20 N -2.6449 4.8815 0.0 0
M  V30 21 C -2.9813 3.2988 0.0 0
M  V30 22 C -3.6394 4.777 0.0 0
M  V30 23 O -3.8473 3.7988 0.0 0
M  V30 24 C -2.8768 2.3043 0.0 0
M  V30 25 C -4.3086 5.5201 0.0 0
M  V30 26 C -3.9995 6.4712 0.0 0
M  V30 27 C -5.2867 5.3122 0.0 0
M  V30 28 C -4.6687 7.2143 0.0 0
M  V30 29 C -5.9558 6.0553 0.0 0
M  V30 30 C -5.6468 7.0064 0.0 0
M  V30 31 C -6.316 7.7495 0.0 0
M  V30 32 C -7.0591 7.0804 0.0 0
M  V30 33 C -6.9851 8.4927 0.0 0
M  V30 34 C -5.5728 8.4187 0.0 0
M  V30 END ATOM
M  V30 BEGIN BOND
M  V30 1 2 1 2
M  V30 2 1 2 3
M  V30 3 1 2 4
M  V30 4 1 4 5 CFG=1
M  V30 5 1 4 6
M  V30 6 1 5 7
M  V30 7 1 6 8
M  V30 8 1 7 9
M  V30 9 2 8 10
M  V30 10 1 8 11
M  V30 11 1 10 12
M  V30 12 2 11 13
M  V30 13 2 12 14
M  V30 14 1 12 15
M  V30 15 1 14 16
M  V30 16 2 15 17
M  V30 17 1 16 18
M  V30 18 1 18 19
M  V30 19 1 19 20
M  V30 20 2 19 21
M  V30 21 2 20 22
M  V30 22 1 21 23
M  V30 23 1 21 24
M  V30 24 1 22 25
M  V30 25 2 25 26
M  V30 26 1 25 27
M  V30 27 1 26 28
M  V30 28 2 27 29
M  V30 29 2 28 30
M  V30 30 1 30 31
M  V30 31 1 31 32
M  V30 32 1 31 33
M  V30 33 1 31 34
M  V30 34 1 13 14
M  V30 35 1 16 17
M  V30 36 1 22 23
M  V30 37 1 29 30
M  V30 END BOND
M  V30 BEGIN COLLECTION
M  V30 MDLV30/STERAC1 ATOMS=(1 4)
M  V30 END COLLECTION
M  V30 END CTAB
M  END
>  <Molecule ChEMBL ID>
CHEMBL213602

>  <Smiles>
CCOC(Cc1ccc2c(ccn2Cc2nc(-c3ccc(C(C)(C)C)cc3)oc2C)c1)C(=O)O

>  <IC50_nM>
15

>  <Assay Description>
Binding affinity to PPARgamma by radio ligand binding assay

$$$$
CHEMBL461378
Actelion Java MolfileCreator 2.0

  0  0  0  0  0  0              0 V3000
M  V30 BEGIN CTAB
M  V30 COUNTS 33 36 0 0 0
M  V30 BEGIN ATOM
M  V30 1 Cl 6.0621 -1.9999 0.0 0
M  V30 2 C 5.1961 -1.4999 0.0 0
M  V30 3 C 5.1961 -0.5 0.0 0
M  V30 4 C 4.3301 -1.9999 0.0 0
M  V30 5 C 4.3301 0.0 0.0 0
M  V30 6 C 6.0621 0.0 0.0 0
M  V30 7 C 3.4641 -1.5 0.0 0
M  V30 8 C 3.4641 -0.5 0.0 0
M  V30 9 N 6.0621 0.9999 0.0 0
M  V30 10 O 2.598 0.0 0.0 0
M  V30 11 C 6.8711 1.5877 0.0 0
M  V30 12 C 5.2531 1.5877 0.0 0
M  V30 13 C 1.732 -0.5 0.0 0 CFG=2
M  V30 14 N 7.8493 1.3798 0.0 0
M  V30 15 C 6.5621 2.5388 0.0 0
M  V30 16 C 5.5621 2.5388 0.0 0
M  V30 17 C 4.3021 1.2787 0.0 0
M  V30 18 C 0.866 0.0 0.0 0
M  V30 19 C 1.732 -1.5 0.0 0
M  V30 20 C 8.5184 2.123 0.0 0
M  V30 21 C 7.2313 3.2819 0.0 0
M  V30 22 O 4.9743 3.3478 0.0 0
M  V30 23 O 0.866 1.0 0.0 0
M  V30 24 O 0.0 -0.5 0.0 0
M  V30 25 F 9.4966 1.9151 0.0 0
M  V30 26 C 8.2094 3.074 0.0 0
M  V30 27 C 3.9798 3.2433 0.0 0
M  V30 28 C 3.392 4.0523 0.0 0
M  V30 29 C 3.5731 2.3297 0.0 0
M  V30 30 C 2.3975 3.9478 0.0 0
M  V30 31 C 2.5786 2.2252 0.0 0
M  V30 32 C 1.9908 3.0342 0.0 0
M  V30 33 Cl 0.9963 2.9297 0.0 0
M  V30 END ATOM
M  V30 BEGIN BOND
M  V30 1 1 1 2
M  V30 2 2 2 3
M  V30 3 1 2 4
M  V30 4 1 3 5
M  V30 5 1 3 6
M  V30 6 2 4 7
M  V30 7 2 5 8
M  V30 8 1 6 9
M  V30 9 1 8 10
M  V30 10 1 9 11
M  V30 11 1 9 12
M  V30 12 1 10 13
M  V30 13 2 11 14
M  V30 14 1 11 15
M  V30 15 2 12 16
M  V30 16 1 12 17
M  V30 17 1 13 18
M  V30 18 1 13 19 CFG=1
M  V30 19 1 14 20
M  V30 20 2 15 21
M  V30 21 1 16 22
M  V30 22 2 18 23
M  V30 23 1 18 24
M  V30 24 1 20 25
M  V30 25 2 20 26
M  V30 26 1 22 27
M  V30 27 2 27 28
M  V30 28 1 27 29
M  V30 29 1 28 30
M  V30 30 2 29 31
M  V30 31 2 30 32
M  V30 32 1 32 33
M  V30 33 1 7 8
M  V30 34 1 15 16
M  V30 35 1 21 26
M  V30 36 1 31 32
M  V30 END BOND
M  V30 BEGIN COLLECTION
M  V30 MDLV30/STEABS ATOMS=(1 13)
M  V30 END COLLECTION
M  V30 END CTAB
M  END
>  <Molecule ChEMBL ID>
CHEMBL461378

>  <Smiles>
Cc1c(Oc2ccc(Cl)cc2)c2ccc(F)nc2n1Cc1cc(O[C@@H](C)C(=O)O)ccc1Cl

>  <IC50_nM>
15

>  <Assay Description>
Displacement of [3H]2AD-5075 from GST-tagged human PPARgamma receptor expressed in Escherichia coli BL21

$$$$
CHEMBL3699368
Actelion Java MolfileCreator 2.0

  0  0  0  0  0  0              0 V3000
M  V30 BEGIN CTAB
M  V30 COUNTS 43 47 0 0 0
M  V30 BEGIN ATOM
M  V30 1 Cl 9.0932 -3.0 0.0 0
M  V30 2 C 7.7942 -2.2499 0.0 0
M  V30 3 C 7.7942 -0.75 0.0 0
M  V30 4 C 6.4951 -2.9999 0.0 0
M  V30 5 C 6.4951 0.0 0.0 0
M  V30 6 C 9.0932 0.0 0.0 0
M  V30 7 C 5.1961 -2.25 0.0 0
M  V30 8 C 5.1961 -0.75 0.0 0
M  V30 9 F 8.3432 1.299 0.0 0
M  V30 10 F 10.3923 0.75 0.0 0
M  V30 11 F 9.8432 -1.299 0.0 0
M  V30 12 C 3.8971 0.0 0.0 0 CFG=1
M  V30 13 N 2.598 -0.75 0.0 0
M  V30 14 C 3.8971 1.5 0.0 0
M  V30 15 C 1.299 0.0 0.0 0
M  V30 16 O 1.299 1.5 0.0 0
M  V30 17 C 0.0 -0.75 0.0 0
M  V30 18 C 0.0 -2.2499 0.0 0
M  V30 19 C -1.299 0.0 0.0 0
M  V30 20 C -1.299 -2.9999 0.0 0
M  V30 21 C -2.598 -0.7499 0.0 0
M  V30 22 C -2.598 -2.2499 0.0 0
M  V30 23 C -1.6109 -4.4672 0.0 0
M  V30 24 N -3.7127 -3.2536 0.0 0
M  V30 25 C -3.1026 -4.624 0.0 0
M  V30 26 C -0.6072 -5.5819 0.0 0
M  V30 27 C -5.18 -2.9418 0.0 0
M  V30 28 C -3.8526 -5.923 0.0 0
M  V30 29 C -6.1837 -4.0565 0.0 0
M  V30 30 C -7.6509 -3.7446 0.0 0
M  V30 31 C -5.7201 -5.4831 0.0 0
M  V30 32 C -8.6546 -4.8593 0.0 0
M  V30 33 C -6.7238 -6.5978 0.0 0
M  V30 34 C -8.1911 -6.2859 0.0 0
M  V30 35 C -9.1947 -7.4006 0.0 0
M  V30 36 C -10.662 -7.0888 0.0 0
M  V30 37 C -8.7312 -8.8272 0.0 0
M  V30 38 C -11.1255 -5.6622 0.0 0
M  V30 39 C -11.6657 -8.2035 0.0 0
M  V30 40 C -9.7349 -9.9419 0.0 0
M  V30 41 O -10.1218 -4.5475 0.0 0
M  V30 42 O -12.5927 -5.3503 0.0 0
M  V30 43 C -11.2021 -9.6301 0.0 0
M  V30 END ATOM
M  V30 BEGIN BOND
M  V30 1 1 1 2
M  V30 2 2 2 3
M  V30 3 1 2 4
M  V30 4 1 3 5
M  V30 5 1 3 6
M  V30 6 2 4 7
M  V30 7 2 5 8
M  V30 8 1 6 9
M  V30 9 1 6 10
M  V30 10 1 6 11
M  V30 11 1 8 12
M  V30 12 1 12 13
M  V30 13 1 12 14 CFG=1
M  V30 14 1 13 15
M  V30 15 2 15 16
M  V30 16 1 15 17
M  V30 17 2 17 18
M  V30 18 1 17 19
M  V30 19 1 18 20
M  V30 20 2 19 21
M  V30 21 2 20 22
M  V30 22 1 20 23
M  V30 23 1 22 24
M  V30 24 2 23 25
M  V30 25 1 23 26
M  V30 26 1 24 27
M  V30 27 1 25 28
M  V30 28 1 27 29
M  V30 29 2 29 30
M  V30 30 1 29 31
M  V30 31 1 30 32
M  V30 32 2 31 33
M  V30 33 2 32 34
M  V30 34 1 34 35
M  V30 35 2 35 36
M  V30 36 1 35 37
M  V30 37 1 36 38
M  V30 38 1 36 39
M  V30 39 2 37 40
M  V30 40 2 38 41
M  V30 41 1 38 42
M  V30 42 2 39 43
M  V30 43 1 7 8
M  V30 44 1 21 22
M  V30 45 1 24 25
M  V30 46 1 33 34
M  V30 47 1 40 43
M  V30 END BOND
M  V30 BEGIN COLLECTION
M  V30 MDLV30/STEABS ATOMS=(1 12)
M  V30 END COLLECTION
M  V30 END CTAB
M  END
>  <Molecule ChEMBL ID>
CHEMBL3699368

>  <Smiles>
Cc1c(C)n(Cc2ccc(-c3ccccc3C(=O)O)cc2)c2ccc(C(=O)N[C@@H](C)c3ccc(Cl)c(C(F)(F)F)c3)cc12

>  <IC50_nM>
15

>  <Assay Description>
Lanthascreen Competitive Binding Assay: The assay was performed according to manufacturer protocol. A mixture of nM GST-PPARG-LBD, 5 nM Tb-GST-antibody, 5 nM Fluormone Pan-PPAR Green, and serial dilutions of the experimental compound, beginning at 10 ׬M downwards, was added to wells of black 384-well low-volume plates (Greiner) to a total volume of 18 ׬L. All dilutions were made in TR-FRET assay buffer C. DMSO at 2% final concentration was used as a no-ligand control. Experiment was performed in triplicate, and incubated for 2 hours in the dark prior to assay read in Perkin Elmer ViewLux ultra HTS microplate reader. FRET signal was measured by excitation at 340 nm and emission at 520 nm for fluorescein and 490 nm for terbium. Fold change over DMSO was calculated using GraphPad Prism Software (La Jolla, Calif.) by calculating 520 nm/490 nm ratio. Graphs were plotted as fold change of FRET signal for compound treatment over DMSO-only control.

$$$$
CHEMBL214026
Actelion Java MolfileCreator 2.0

  0  0  0  0  0  0              0 V3000
M  V30 BEGIN CTAB
M  V30 COUNTS 32 34 0 0 0
M  V30 BEGIN ATOM
M  V30 1 Cl 7.7942 -2.0 0.0 0
M  V30 2 C 6.9282 -1.5 0.0 0
M  V30 3 C 6.9282 -0.5 0.0 0
M  V30 4 C 6.0621 -2.0 0.0 0
M  V30 5 C 6.0621 0.0 0.0 0
M  V30 6 C 5.1961 -1.5 0.0 0
M  V30 7 O 6.0621 1.0 0.0 0
M  V30 8 C 5.1961 -0.5 0.0 0
M  V30 9 C 5.1961 1.5 0.0 0
M  V30 10 O 4.3301 0.0 0.0 0
M  V30 11 C 5.1961 2.5 0.0 0
M  V30 12 C 4.3301 1.0 0.0 0
M  V30 13 C 3.4641 -0.5 0.0 0 CFG=1
M  V30 14 C 4.3301 3.0 0.0 0
M  V30 15 C 3.4641 1.5 0.0 0
M  V30 16 C 2.598 0.0 0.0 0
M  V30 17 C 3.4641 -1.5 0.0 0
M  V30 18 C 3.4641 2.5 0.0 0
M  V30 19 C 1.732 -0.5 0.0 0
M  V30 20 O 0.866 0.0 0.0 0
M  V30 21 C 0.0 -0.5 0.0 0
M  V30 22 C -0.866 0.0 0.0 0
M  V30 23 C 0.0 -1.4999 0.0 0
M  V30 24 C -1.732 -0.4999 0.0 0
M  V30 25 C -0.866 -1.9999 0.0 0
M  V30 26 C -1.732 -1.4999 0.0 0
M  V30 27 C -2.598 0.0 0.0 0
M  V30 28 C -2.598 -1.9999 0.0 0
M  V30 29 C -2.598 -2.9999 0.0 0
M  V30 30 C -3.4641 -3.4999 0.0 0
M  V30 31 O -4.3301 -2.9999 0.0 0
M  V30 32 O -3.4641 -4.4999 0.0 0
M  V30 END ATOM
M  V30 BEGIN BOND
M  V30 1 1 1 2
M  V30 2 2 2 3
M  V30 3 1 2 4
M  V30 4 1 3 5
M  V30 5 2 4 6
M  V30 6 1 5 7
M  V30 7 2 5 8
M  V30 8 1 7 9
M  V30 9 1 8 10
M  V30 10 2 9 11
M  V30 11 1 9 12
M  V30 12 1 10 13
M  V30 13 1 11 14
M  V30 14 2 12 15
M  V30 15 1 13 16
M  V30 16 1 13 17 CFG=3
M  V30 17 2 14 18
M  V30 18 1 16 19
M  V30 19 1 19 20
M  V30 20 1 20 21
M  V30 21 2 21 22
M  V30 22 1 21 23
M  V30 23 1 22 24
M  V30 24 2 23 25
M  V30 25 2 24 26
M  V30 26 1 24 27
M  V30 27 1 26 28
M  V30 28 1 28 29
M  V30 29 1 29 30
M  V30 30 2 30 31
M  V30 31 1 30 32
M  V30 32 1 6 8
M  V30 33 1 15 18
M  V30 34 1 25 26
M  V30 END BOND
M  V30 BEGIN COLLECTION
M  V30 MDLV30/STEABS ATOMS=(1 13)
M  V30 END COLLECTION
M  V30 END CTAB
M  END
>  <Molecule ChEMBL ID>
CHEMBL214026

>  <Smiles>
Cc1cc(OCC[C@@H](C)Oc2ccc(Cl)cc2Oc2ccccc2)ccc1CCC(=O)O

>  <IC50_nM>
15

>  <Assay Description>
Displacement of [3H]2-methyl-2-(4-{3-[propyl-(5-pyridin-2-yl-thiophene-2-sulfonyl)-amino]-propyl}-phenoxy)-propionic acid from human PPARgamma by SPA

$$$$
CHEMBL5286386
Actelion Java MolfileCreator 2.0

  0  0  0  0  0  0              0 V3000
M  V30 BEGIN CTAB
M  V30 COUNTS 33 35 0 0 0
M  V30 BEGIN ATOM
M  V30 1 Cl 6.0621 -1.9999 0.0 0
M  V30 2 C 5.1961 -1.4999 0.0 0
M  V30 3 C 5.1961 -0.5 0.0 0
M  V30 4 C 4.3301 -1.9999 0.0 0
M  V30 5 C 6.0621 0.0 0.0 0
M  V30 6 C 4.3301 0.0 0.0 0
M  V30 7 C 3.4641 -1.5 0.0 0
M  V30 8 O 6.0621 0.9999 0.0 0
M  V30 9 N 6.9282 -0.5 0.0 0
M  V30 10 C 3.4641 -0.5 0.0 0
M  V30 11 F 2.598 -2.0 0.0 0
M  V30 12 C 7.7942 0.0 0.0 0
M  V30 13 C 2.598 0.0 0.0 0
M  V30 14 C 8.6602 -0.5 0.0 0
M  V30 15 C 7.7942 0.9999 0.0 0
M  V30 16 O 2.598 1.0 0.0 0
M  V30 17 N 1.732 -0.5 0.0 0
M  V30 18 C 9.5262 0.0 0.0 0
M  V30 19 C 8.6602 1.4999 0.0 0
M  V30 20 C 0.866 0.0 0.0 0
M  V30 21 C 9.5262 0.9999 0.0 0
M  V30 22 C 0.0 -0.5 0.0 0
M  V30 23 C 10.3923 1.4999 0.0 0
M  V30 24 C -0.866 0.0 0.0 0
M  V30 25 C 0.0 -1.4999 0.0 0
M  V30 26 O 9.8923 2.366 0.0 0
M  V30 27 C 11.2583 1.9999 0.0 0
M  V30 28 C 10.8923 0.6339 0.0 0
M  V30 29 C -1.732 -0.4999 0.0 0
M  V30 30 C -0.866 -1.9999 0.0 0
M  V30 31 F -2.598 0.0 0.0 0
M  V30 32 C -1.732 -1.4999 0.0 0
M  V30 33 F -2.598 -1.9999 0.0 0
M  V30 END ATOM
M  V30 BEGIN BOND
M  V30 1 1 1 2
M  V30 2 2 2 3
M  V30 3 1 2 4
M  V30 4 1 3 5
M  V30 5 1 3 6
M  V30 6 2 4 7
M  V30 7 2 5 8
M  V30 8 1 5 9
M  V30 9 2 6 10
M  V30 10 1 7 11
M  V30 11 1 9 12
M  V30 12 1 10 13
M  V30 13 2 12 14
M  V30 14 1 12 15
M  V30 15 2 13 16
M  V30 16 1 13 17
M  V30 17 1 14 18
M  V30 18 2 15 19
M  V30 19 1 17 20
M  V30 20 2 18 21
M  V30 21 1 20 22
M  V30 22 1 21 23
M  V30 23 2 22 24
M  V30 24 1 22 25
M  V30 25 1 23 26
M  V30 26 1 23 27
M  V30 27 1 23 28
M  V30 28 1 24 29
M  V30 29 2 25 30
M  V30 30 1 29 31
M  V30 31 2 29 32
M  V30 32 1 32 33
M  V30 33 1 7 10
M  V30 34 1 19 21
M  V30 35 1 30 32
M  V30 END BOND
M  V30 END CTAB
M  END
>  <Molecule ChEMBL ID>
CHEMBL5286386

>  <Smiles>
CC(C)(O)c1ccc(NC(=O)c2cc(C(=O)NCc3ccc(F)c(F)c3)c(F)cc2Cl)cc1

>  <IC50_nM>
15

>  <Assay Description>
Inverse agonist activity at human PPARgamma in human RT112/84 transfected with NLuc-fused FABP4 assessed as reduction in PPARgamma transactivation incubated for 6 to 18 hrs by Nano-Glo luciferase assay

$$$$
CHEMBL264385
Actelion Java MolfileCreator 2.0

  0  0  0  0  0  0              0 V3000
M  V30 BEGIN CTAB
M  V30 COUNTS 34 37 0 0 0
M  V30 BEGIN ATOM
M  V30 1 O 5.1961 -4.5 0.0 0
M  V30 2 C 5.1961 -3.4999 0.0 0
M  V30 3 O 4.3301 -2.9999 0.0 0
M  V30 4 C 6.0621 -3.0 0.0 0 CFG=1
M  V30 5 O 6.9282 -3.5 0.0 0
M  V30 6 C 6.0621 -1.9999 0.0 0
M  V30 7 C 6.0621 -4.0 0.0 0
M  V30 8 C 7.7942 -3.0 0.0 0
M  V30 9 C 5.1961 -1.4999 0.0 0
M  V30 10 C 7.7942 -2.0 0.0 0
M  V30 11 C 8.6602 -3.5 0.0 0
M  V30 12 C 5.1961 -0.5 0.0 0
M  V30 13 C 4.3301 -1.9999 0.0 0
M  V30 14 C 8.6602 -1.5 0.0 0
M  V30 15 C 9.5262 -3.0 0.0 0
M  V30 16 C 4.3301 0.0 0.0 0
M  V30 17 C 3.4641 -1.5 0.0 0
M  V30 18 C 9.5262 -2.0 0.0 0
M  V30 19 C 3.4641 -0.5 0.0 0
M  V30 20 O 2.598 0.0 0.0 0
M  V30 21 C 1.732 -0.5 0.0 0
M  V30 22 C 0.866 0.0 0.0 0
M  V30 23 C 0.0 -0.5 0.0 0
M  V30 24 N -0.9135 -0.0932 0.0 0
M  V30 25 C -0.1045 -1.4945 0.0 0
M  V30 26 C -1.5826 -0.8364 0.0 0
M  V30 27 O -1.0826 -1.7024 0.0 0
M  V30 28 C 0.6386 -2.1636 0.0 0
M  V30 29 C -2.5771 -0.7318 0.0 0
M  V30 30 C -2.9839 0.1816 0.0 0
M  V30 31 C -3.1649 -1.5408 0.0 0
M  V30 32 C -3.9784 0.2861 0.0 0
M  V30 33 C -4.1595 -1.4363 0.0 0
M  V30 34 C -4.5662 -0.5228 0.0 0
M  V30 END ATOM
M  V30 BEGIN BOND
M  V30 1 2 1 2
M  V30 2 1 2 3
M  V30 3 1 2 4
M  V30 4 1 4 5
M  V30 5 1 4 6
M  V30 6 1 4 7 CFG=1
M  V30 7 1 5 8
M  V30 8 1 6 9
M  V30 9 2 8 10
M  V30 10 1 8 11
M  V30 11 2 9 12
M  V30 12 1 9 13
M  V30 13 1 10 14
M  V30 14 2 11 15
M  V30 15 1 12 16
M  V30 16 2 13 17
M  V30 17 2 14 18
M  V30 18 2 16 19
M  V30 19 1 19 20
M  V30 20 1 20 21
M  V30 21 1 21 22
M  V30 22 1 22 23
M  V30 23 1 23 24
M  V30 24 2 23 25
M  V30 25 2 24 26
M  V30 26 1 25 27
M  V30 27 1 25 28
M  V30 28 1 26 29
M  V30 29 1 29 30
M  V30 30 1 29 31
M  V30 31 1 30 32
M  V30 32 1 31 33
M  V30 33 1 32 34
M  V30 34 1 15 18
M  V30 35 1 17 19
M  V30 36 1 26 27
M  V30 37 1 33 34
M  V30 END BOND
M  V30 BEGIN COLLECTION
M  V30 MDLV30/STEABS ATOMS=(1 4)
M  V30 END COLLECTION
M  V30 END CTAB
M  END
>  <Molecule ChEMBL ID>
CHEMBL264385

>  <Smiles>
Cc1oc(C2CCCCC2)nc1CCOc1ccc(C[C@](C)(Oc2ccccc2)C(=O)O)cc1

>  <IC50_nM>
15

>  <Assay Description>
Agonist activity at PPARgamma

$$$$
CHEMBL2331786
Actelion Java MolfileCreator 2.0

  0  0  0  0  0  0              0 V3000
M  V30 BEGIN CTAB
M  V30 COUNTS 31 33 0 0 0
M  V30 BEGIN ATOM
M  V30 1 Cl 10.3923 2.25 0.0 0
M  V30 2 C 11.6913 1.5 0.0 0
M  V30 3 C 11.6913 0.0 0.0 0
M  V30 4 C 12.9903 2.25 0.0 0
M  V30 5 S 10.3923 -0.75 0.0 0
M  V30 6 C 12.9903 -0.75 0.0 0
M  V30 7 C 14.2894 1.5 0.0 0
M  V30 8 O 9.6423 -2.049 0.0 0
M  V30 9 O 11.1423 -2.049 0.0 0
M  V30 10 N 9.0932 0.0 0.0 0
M  V30 11 C 14.2894 0.0 0.0 0
M  V30 12 Cl 15.5884 2.25 0.0 0
M  V30 13 C 7.7942 -0.75 0.0 0
M  V30 14 C 6.4951 0.0 0.0 0
M  V30 15 C 7.7942 -2.25 0.0 0
M  V30 16 C 5.1961 -0.75 0.0 0
M  V30 17 C 6.4951 -3.0 0.0 0
M  V30 18 C 5.1961 -2.25 0.0 0
M  V30 19 C 3.8971 0.0 0.0 0
M  V30 20 O 3.8971 -3.0 0.0 0
M  V30 21 O 3.8971 1.5 0.0 0
M  V30 22 N 2.598 -0.75 0.0 0
M  V30 23 C 3.8971 -4.5 0.0 0
M  V30 24 C 1.299 0.0 0.0 0
M  V30 25 C 2.598 -5.25 0.0 0
M  V30 26 C 5.1961 -5.25 0.0 0
M  V30 27 C 0.0 -0.75 0.0 0
M  V30 28 N 2.598 -6.75 0.0 0
M  V30 29 C 5.1961 -6.75 0.0 0
M  V30 30 C 3.8971 -7.5 0.0 0
M  V30 31 Cl 6.4951 -7.5 0.0 0
M  V30 END ATOM
M  V30 BEGIN BOND
M  V30 1 1 1 2
M  V30 2 2 2 3
M  V30 3 1 2 4
M  V30 4 1 3 5
M  V30 5 1 3 6
M  V30 6 2 4 7
M  V30 7 2 5 8
M  V30 8 2 5 9
M  V30 9 1 5 10
M  V30 10 2 6 11
M  V30 11 1 7 12
M  V30 12 1 10 13
M  V30 13 2 13 14
M  V30 14 1 13 15
M  V30 15 1 14 16
M  V30 16 2 15 17
M  V30 17 2 16 18
M  V30 18 1 16 19
M  V30 19 1 18 20
M  V30 20 2 19 21
M  V30 21 1 19 22
M  V30 22 1 20 23
M  V30 23 1 22 24
M  V30 24 2 23 25
M  V30 25 1 23 26
M  V30 26 1 24 27
M  V30 27 1 25 28
M  V30 28 2 26 29
M  V30 29 2 28 30
M  V30 30 1 29 31
M  V30 31 1 7 11
M  V30 32 1 17 18
M  V30 33 1 29 30
M  V30 END BOND
M  V30 END CTAB
M  END
>  <Molecule ChEMBL ID>
CHEMBL2331786

>  <Smiles>
CCNC(=O)c1cc(NS(=O)(=O)c2ccc(Cl)cc2Cl)ccc1Oc1cncc(Cl)c1

>  <IC50_nM>
15

>  <Assay Description>
Displacement of [3H]-rosiglitazone from GST-tagged PPARgammaLBD (unknown origin) after 1 hr by scintillation proximity assay

$$$$
CHEMBL2331781
Actelion Java MolfileCreator 2.0

  0  0  0  0  0  0              0 V3000
M  V30 BEGIN CTAB
M  V30 COUNTS 29 31 0 0 0
M  V30 BEGIN ATOM
M  V30 1 Cl 2.598 2.25 0.0 0
M  V30 2 C 3.8971 1.5 0.0 0
M  V30 3 C 3.8971 0.0 0.0 0
M  V30 4 C 5.1961 2.25 0.0 0
M  V30 5 S 2.598 -0.75 0.0 0
M  V30 6 C 5.1961 -0.75 0.0 0
M  V30 7 C 6.4951 1.5 0.0 0
M  V30 8 O 1.848 -2.049 0.0 0
M  V30 9 O 3.348 -2.049 0.0 0
M  V30 10 N 1.299 0.0 0.0 0
M  V30 11 C 6.4951 0.0 0.0 0
M  V30 12 Cl 7.7942 2.25 0.0 0
M  V30 13 C 0.0 -0.75 0.0 0
M  V30 14 C -1.299 0.0 0.0 0
M  V30 15 C 0.0 -2.25 0.0 0
M  V30 16 C -2.598 -0.75 0.0 0
M  V30 17 C -1.299 -3.0 0.0 0
M  V30 18 C -2.598 -2.25 0.0 0
M  V30 19 C -3.8971 0.0 0.0 0
M  V30 20 O -3.8971 -3.0 0.0 0
M  V30 21 O -3.8971 1.5 0.0 0
M  V30 22 C -5.1961 -0.75 0.0 0
M  V30 23 C -3.8971 -4.5 0.0 0
M  V30 24 C -5.1961 -5.25 0.0 0
M  V30 25 C -2.598 -5.25 0.0 0
M  V30 26 N -5.1961 -6.75 0.0 0
M  V30 27 C -2.598 -6.75 0.0 0
M  V30 28 C -3.8971 -7.5 0.0 0
M  V30 29 Cl -1.299 -7.5 0.0 0
M  V30 END ATOM
M  V30 BEGIN BOND
M  V30 1 1 1 2
M  V30 2 2 2 3
M  V30 3 1 2 4
M  V30 4 1 3 5
M  V30 5 1 3 6
M  V30 6 2 4 7
M  V30 7 2 5 8
M  V30 8 2 5 9
M  V30 9 1 5 10
M  V30 10 2 6 11
M  V30 11 1 7 12
M  V30 12 1 10 13
M  V30 13 2 13 14
M  V30 14 1 13 15
M  V30 15 1 14 16
M  V30 16 2 15 17
M  V30 17 2 16 18
M  V30 18 1 16 19
M  V30 19 1 18 20
M  V30 20 2 19 21
M  V30 21 1 19 22
M  V30 22 1 20 23
M  V30 23 2 23 24
M  V30 24 1 23 25
M  V30 25 1 24 26
M  V30 26 2 25 27
M  V30 27 2 26 28
M  V30 28 1 27 29
M  V30 29 1 7 11
M  V30 30 1 17 18
M  V30 31 1 27 28
M  V30 END BOND
M  V30 END CTAB
M  END
>  <Molecule ChEMBL ID>
CHEMBL2331781

>  <Smiles>
CC(=O)c1cc(NS(=O)(=O)c2ccc(Cl)cc2Cl)ccc1Oc1cncc(Cl)c1

>  <IC50_nM>
15

>  <Assay Description>
Displacement of [3H]-rosiglitazone from GST-tagged PPARgammaLBD (unknown origin) after 1 hr by scintillation proximity assay

$$$$
CHEMBL214026
Actelion Java MolfileCreator 2.0

  0  0  0  0  0  0              0 V3000
M  V30 BEGIN CTAB
M  V30 COUNTS 32 34 0 0 0
M  V30 BEGIN ATOM
M  V30 1 Cl 7.7942 -2.0 0.0 0
M  V30 2 C 6.9282 -1.5 0.0 0
M  V30 3 C 6.9282 -0.5 0.0 0
M  V30 4 C 6.0621 -2.0 0.0 0
M  V30 5 C 6.0621 0.0 0.0 0
M  V30 6 C 5.1961 -1.5 0.0 0
M  V30 7 O 6.0621 1.0 0.0 0
M  V30 8 C 5.1961 -0.5 0.0 0
M  V30 9 C 5.1961 1.5 0.0 0
M  V30 10 O 4.3301 0.0 0.0 0
M  V30 11 C 5.1961 2.5 0.0 0
M  V30 12 C 4.3301 1.0 0.0 0
M  V30 13 C 3.4641 -0.5 0.0 0 CFG=1
M  V30 14 C 4.3301 3.0 0.0 0
M  V30 15 C 3.4641 1.5 0.0 0
M  V30 16 C 2.598 0.0 0.0 0
M  V30 17 C 3.4641 -1.5 0.0 0
M  V30 18 C 3.4641 2.5 0.0 0
M  V30 19 C 1.732 -0.5 0.0 0
M  V30 20 O 0.866 0.0 0.0 0
M  V30 21 C 0.0 -0.5 0.0 0
M  V30 22 C -0.866 0.0 0.0 0
M  V30 23 C 0.0 -1.4999 0.0 0
M  V30 24 C -1.732 -0.4999 0.0 0
M  V30 25 C -0.866 -1.9999 0.0 0
M  V30 26 C -1.732 -1.4999 0.0 0
M  V30 27 C -2.598 0.0 0.0 0
M  V30 28 C -2.598 -1.9999 0.0 0
M  V30 29 C -2.598 -2.9999 0.0 0
M  V30 30 C -3.4641 -3.4999 0.0 0
M  V30 31 O -4.3301 -2.9999 0.0 0
M  V30 32 O -3.4641 -4.4999 0.0 0
M  V30 END ATOM
M  V30 BEGIN BOND
M  V30 1 1 1 2
M  V30 2 2 2 3
M  V30 3 1 2 4
M  V30 4 1 3 5
M  V30 5 2 4 6
M  V30 6 1 5 7
M  V30 7 2 5 8
M  V30 8 1 7 9
M  V30 9 1 8 10
M  V30 10 2 9 11
M  V30 11 1 9 12
M  V30 12 1 10 13
M  V30 13 1 11 14
M  V30 14 2 12 15
M  V30 15 1 13 16
M  V30 16 1 13 17 CFG=3
M  V30 17 2 14 18
M  V30 18 1 16 19
M  V30 19 1 19 20
M  V30 20 1 20 21
M  V30 21 2 21 22
M  V30 22 1 21 23
M  V30 23 1 22 24
M  V30 24 2 23 25
M  V30 25 2 24 26
M  V30 26 1 24 27
M  V30 27 1 26 28
M  V30 28 1 28 29
M  V30 29 1 29 30
M  V30 30 2 30 31
M  V30 31 1 30 32
M  V30 32 1 6 8
M  V30 33 1 15 18
M  V30 34 1 25 26
M  V30 END BOND
M  V30 BEGIN COLLECTION
M  V30 MDLV30/STEABS ATOMS=(1 13)
M  V30 END COLLECTION
M  V30 END CTAB
M  END
>  <Molecule ChEMBL ID>
CHEMBL214026

>  <Smiles>
Cc1cc(OCC[C@@H](C)Oc2ccc(Cl)cc2Oc2ccccc2)ccc1CCC(=O)O

>  <IC50_nM>
15

>  <Assay Description>
Agonist activity at PPARgamma

$$$$
CHEMBL393938
Actelion Java MolfileCreator 2.0

  0  0  0  0  0  0              0 V3000
M  V30 BEGIN CTAB
M  V30 COUNTS 36 38 0 0 0
M  V30 BEGIN ATOM
M  V30 1 Cl 6.4951 1.5 0.0 0
M  V30 2 C 6.4951 0.0 0.0 0
M  V30 3 C 5.1961 -0.75 0.0 0
M  V30 4 C 7.7942 -0.75 0.0 0
M  V30 5 C 3.8971 0.0 0.0 0
M  V30 6 C 5.1961 -2.25 0.0 0
M  V30 7 C 7.7942 -2.25 0.0 0
M  V30 8 O 3.8971 1.5 0.0 0
M  V30 9 N 2.598 -0.75 0.0 0
M  V30 10 C 6.4951 -3.0 0.0 0
M  V30 11 C 9.0932 -3.0 0.0 0
M  V30 12 C 1.299 0.0 0.0 0
M  V30 13 F 9.8432 -1.7009 0.0 0
M  V30 14 F 10.3923 -3.75 0.0 0
M  V30 15 F 8.3432 -4.299 0.0 0
M  V30 16 C 0.0 -0.75 0.0 0
M  V30 17 C -1.299 0.0 0.0 0
M  V30 18 C 0.0 -2.25 0.0 0
M  V30 19 C -2.598 -0.75 0.0 0
M  V30 20 C -1.299 -3.0 0.0 0
M  V30 21 O -3.8971 0.0 0.0 0
M  V30 22 C -2.598 -2.25 0.0 0
M  V30 23 C -5.1961 -0.75 0.0 0
M  V30 24 C -6.4951 0.0 0.0 0
M  V30 25 C -5.1961 -2.25 0.0 0
M  V30 26 C -7.7942 -0.75 0.0 0
M  V30 27 C -6.4951 -3.0 0.0 0
M  V30 28 C -7.7942 -2.25 0.0 0
M  V30 29 C -9.0932 0.0 0.0 0
M  V30 30 O -9.0932 -3.0 0.0 0
M  V30 31 C -9.0932 -4.5 0.0 0
M  V30 32 C -10.3923 -5.25 0.0 0
M  V30 33 C -8.3433 -5.799 0.0 0
M  V30 34 C -7.5933 -4.4999 0.0 0
M  V30 35 O -11.6913 -4.5 0.0 0
M  V30 36 O -10.3923 -6.75 0.0 0
M  V30 END ATOM
M  V30 BEGIN BOND
M  V30 1 1 1 2
M  V30 2 2 2 3
M  V30 3 1 2 4
M  V30 4 1 3 5
M  V30 5 1 3 6
M  V30 6 2 4 7
M  V30 7 2 5 8
M  V30 8 1 5 9
M  V30 9 2 6 10
M  V30 10 1 7 11
M  V30 11 1 9 12
M  V30 12 1 11 13
M  V30 13 1 11 14
M  V30 14 1 11 15
M  V30 15 1 12 16
M  V30 16 2 16 17
M  V30 17 1 16 18
M  V30 18 1 17 19
M  V30 19 2 18 20
M  V30 20 1 19 21
M  V30 21 2 19 22
M  V30 22 1 21 23
M  V30 23 2 23 24
M  V30 24 1 23 25
M  V30 25 1 24 26
M  V30 26 2 25 27
M  V30 27 2 26 28
M  V30 28 1 26 29
M  V30 29 1 28 30
M  V30 30 1 30 31
M  V30 31 1 31 32
M  V30 32 1 31 33
M  V30 33 1 31 34
M  V30 34 2 32 35
M  V30 35 1 32 36
M  V30 36 1 7 10
M  V30 37 1 20 22
M  V30 38 1 27 28
M  V30 END BOND
M  V30 END CTAB
M  END
>  <Molecule ChEMBL ID>
CHEMBL393938

>  <Smiles>
Cc1cc(Oc2cccc(CNC(=O)c3ccc(C(F)(F)F)cc3Cl)c2)ccc1OC(C)(C)C(=O)O

>  <IC50_nM>
15

>  <Assay Description>
Agonist activity at PPARgamma

$$$$
CHEMBL3699413
Actelion Java MolfileCreator 2.0

  0  0  0  0  0  0              0 V3000
M  V30 BEGIN CTAB
M  V30 COUNTS 41 46 0 0 0
M  V30 BEGIN ATOM
M  V30 1 O 11.8592 -3.5669 0.0 0
M  V30 2 C 10.8811 -3.7748 0.0 0
M  V30 3 O 10.212 -3.0316 0.0 0
M  V30 4 C 10.5721 -4.7258 0.0 0
M  V30 5 C 9.5939 -4.9337 0.0 0
M  V30 6 C 11.2412 -5.469 0.0 0
M  V30 7 C 8.9248 -4.1906 0.0 0
M  V30 8 C 9.2849 -5.8848 0.0 0
M  V30 9 C 10.9322 -6.42 0.0 0
M  V30 10 C 9.2338 -3.2395 0.0 0
M  V30 11 C 7.9466 -4.3985 0.0 0
M  V30 12 C 9.954 -6.6279 0.0 0
M  V30 13 C 8.5647 -2.4964 0.0 0
M  V30 14 C 7.2775 -3.6554 0.0 0
M  V30 15 C 7.5865 -2.7043 0.0 0
M  V30 16 C 6.9174 -1.9612 0.0 0
M  V30 17 N 5.9392 -2.1691 0.0 0
M  V30 18 C 5.1961 -1.4999 0.0 0
M  V30 19 C 5.5325 -3.0826 0.0 0
M  V30 20 C 4.3301 -1.9999 0.0 0
M  V30 21 C 5.1961 -0.4999 0.0 0
M  V30 22 C 4.538 -2.9781 0.0 0
M  V30 23 C 6.0325 -3.9487 0.0 0
M  V30 24 C 3.4641 -1.5 0.0 0
M  V30 25 C 4.3301 0.0 0.0 0
M  V30 26 C 3.8689 -3.7212 0.0 0
M  V30 27 C 3.4641 -0.5 0.0 0
M  V30 28 C 2.598 0.0 0.0 0
M  V30 29 O 2.598 1.0 0.0 0
M  V30 30 N 1.732 -0.5 0.0 0
M  V30 31 C 0.866 0.0 0.0 0 CFG=1
M  V30 32 C 0.866 1.0 0.0 0
M  V30 33 C 0.0 -0.5 0.0 0
M  V30 34 C 1.732 1.4999 0.0 0
M  V30 35 C 0.0 1.4999 0.0 0
M  V30 36 C 1.732 2.5 0.0 0
M  V30 37 C 0.0 2.5 0.0 0
M  V30 38 N 0.866 3.0 0.0 0
M  V30 39 C 2.598 3.0 0.0 0
M  V30 40 C 3.598 3.0 0.0 0
M  V30 41 C 3.098 3.866 0.0 0
M  V30 END ATOM
M  V30 BEGIN BOND
M  V30 1 2 1 2
M  V30 2 1 2 3
M  V30 3 1 2 4
M  V30 4 2 4 5
M  V30 5 1 4 6
M  V30 6 1 5 7
M  V30 7 1 5 8
M  V30 8 2 6 9
M  V30 9 2 7 10
M  V30 10 1 7 11
M  V30 11 2 8 12
M  V30 12 1 10 13
M  V30 13 2 11 14
M  V30 14 2 13 15
M  V30 15 1 15 16
M  V30 16 1 16 17
M  V30 17 1 17 18
M  V30 18 1 17 19
M  V30 19 2 18 20
M  V30 20 1 18 21
M  V30 21 2 19 22
M  V30 22 1 19 23
M  V30 23 1 20 24
M  V30 24 2 21 25
M  V30 25 1 22 26
M  V30 26 2 24 27
M  V30 27 1 27 28
M  V30 28 2 28 29
M  V30 29 1 28 30
M  V30 30 1 30 31
M  V30 31 1 31 32
M  V30 32 1 31 33 CFG=3
M  V30 33 2 32 34
M  V30 34 1 32 35
M  V30 35 1 34 36
M  V30 36 2 35 37
M  V30 37 2 36 38
M  V30 38 1 36 39
M  V30 39 1 39 40
M  V30 40 1 39 41
M  V30 41 1 9 12
M  V30 42 1 14 15
M  V30 43 1 20 22
M  V30 44 1 25 27
M  V30 45 1 37 38
M  V30 46 1 40 41
M  V30 END BOND
M  V30 BEGIN COLLECTION
M  V30 MDLV30/STEABS ATOMS=(1 31)
M  V30 END COLLECTION
M  V30 END CTAB
M  END
>  <Molecule ChEMBL ID>
CHEMBL3699413

>  <Smiles>
Cc1c(C)n(Cc2ccc(-c3ccccc3C(=O)O)cc2)c2ccc(C(=O)N[C@H](C)c3ccnc(C4CC4)c3)cc12

>  <IC50_nM>
15

>  <Assay Description>
Lanthascreen Competitive Binding Assay: The assay was performed according to manufacturer protocol. A mixture of nM GST-PPARG-LBD, 5 nM Tb-GST-antibody, 5 nM Fluormone Pan-PPAR Green, and serial dilutions of the experimental compound, beginning at 10 ׬M downwards, was added to wells of black 384-well low-volume plates (Greiner) to a total volume of 18 ׬L. All dilutions were made in TR-FRET assay buffer C. DMSO at 2% final concentration was used as a no-ligand control. Experiment was performed in triplicate, and incubated for 2 hours in the dark prior to assay read in Perkin Elmer ViewLux ultra HTS microplate reader. FRET signal was measured by excitation at 340 nm and emission at 520 nm for fluorescein and 490 nm for terbium. Fold change over DMSO was calculated using GraphPad Prism Software (La Jolla, Calif.) by calculating 520 nm/490 nm ratio. Graphs were plotted as fold change of FRET signal for compound treatment over DMSO-only control.

$$$$
CHEMBL3699365
Actelion Java MolfileCreator 2.0

  0  0  0  0  0  0              0 V3000
M  V30 BEGIN CTAB
M  V30 COUNTS 40 44 0 0 0
M  V30 BEGIN ATOM
M  V30 1 Cl 4.3301 -2.9999 0.0 0
M  V30 2 C 4.3301 -1.9999 0.0 0
M  V30 3 C 5.1961 -1.5 0.0 0
M  V30 4 C 3.4641 -1.5 0.0 0
M  V30 5 C 5.1961 -0.5 0.0 0
M  V30 6 C 3.4641 -0.5 0.0 0
M  V30 7 Cl 6.0621 0.0 0.0 0
M  V30 8 C 4.3301 0.0 0.0 0
M  V30 9 C 2.598 0.0 0.0 0 CFG=1
M  V30 10 N 1.732 -0.5 0.0 0
M  V30 11 C 2.598 1.0 0.0 0
M  V30 12 C 0.866 0.0 0.0 0
M  V30 13 O 0.866 1.0 0.0 0
M  V30 14 C 0.0 -0.5 0.0 0
M  V30 15 C 0.0 -1.4999 0.0 0
M  V30 16 C -0.866 0.0 0.0 0
M  V30 17 C -0.866 -1.9999 0.0 0
M  V30 18 C -1.732 -0.4999 0.0 0
M  V30 19 C -1.732 -1.4999 0.0 0
M  V30 20 C -1.0739 -2.9781 0.0 0
M  V30 21 N -2.4751 -2.1691 0.0 0
M  V30 22 C -2.0684 -3.0826 0.0 0
M  V30 23 C -0.4048 -3.7212 0.0 0
M  V30 24 C -3.4533 -1.9612 0.0 0
M  V30 25 C -2.5684 -3.9487 0.0 0
M  V30 26 C -4.1224 -2.7043 0.0 0
M  V30 27 C -5.1006 -2.4964 0.0 0
M  V30 28 C -3.8134 -3.6554 0.0 0
M  V30 29 C -5.7697 -3.2395 0.0 0
M  V30 30 C -4.4825 -4.3985 0.0 0
M  V30 31 C -5.4607 -4.1906 0.0 0
M  V30 32 C -6.1298 -4.9337 0.0 0
M  V30 33 C -7.108 -4.7258 0.0 0
M  V30 34 C -5.8208 -5.8848 0.0 0
M  V30 35 C -7.417 -3.7748 0.0 0
M  V30 36 C -7.7771 -5.469 0.0 0
M  V30 37 C -6.4899 -6.6279 0.0 0
M  V30 38 O -6.7478 -3.0316 0.0 0
M  V30 39 O -8.3951 -3.5669 0.0 0
M  V30 40 C -7.4681 -6.42 0.0 0
M  V30 END ATOM
M  V30 BEGIN BOND
M  V30 1 1 1 2
M  V30 2 2 2 3
M  V30 3 1 2 4
M  V30 4 1 3 5
M  V30 5 2 4 6
M  V30 6 1 5 7
M  V30 7 2 5 8
M  V30 8 1 6 9
M  V30 9 1 9 10
M  V30 10 1 9 11 CFG=1
M  V30 11 1 10 12
M  V30 12 2 12 13
M  V30 13 1 12 14
M  V30 14 2 14 15
M  V30 15 1 14 16
M  V30 16 1 15 17
M  V30 17 2 16 18
M  V30 18 2 17 19
M  V30 19 1 17 20
M  V30 20 1 19 21
M  V30 21 2 20 22
M  V30 22 1 20 23
M  V30 23 1 21 24
M  V30 24 1 22 25
M  V30 25 1 24 26
M  V30 26 2 26 27
M  V30 27 1 26 28
M  V30 28 1 27 29
M  V30 29 2 28 30
M  V30 30 2 29 31
M  V30 31 1 31 32
M  V30 32 2 32 33
M  V30 33 1 32 34
M  V30 34 1 33 35
M  V30 35 1 33 36
M  V30 36 2 34 37
M  V30 37 2 35 38
M  V30 38 1 35 39
M  V30 39 2 36 40
M  V30 40 1 6 8
M  V30 41 1 18 19
M  V30 42 1 21 22
M  V30 43 1 30 31
M  V30 44 1 37 40
M  V30 END BOND
M  V30 BEGIN COLLECTION
M  V30 MDLV30/STEABS ATOMS=(1 9)
M  V30 END COLLECTION
M  V30 END CTAB
M  END
>  <Molecule ChEMBL ID>
CHEMBL3699365

>  <Smiles>
Cc1c(C)n(Cc2ccc(-c3ccccc3C(=O)O)cc2)c2ccc(C(=O)N[C@@H](C)c3cc(Cl)cc(Cl)c3)cc12

>  <IC50_nM>
15

>  <Assay Description>
Lanthascreen Competitive Binding Assay: The assay was performed according to manufacturer protocol. A mixture of nM GST-PPARG-LBD, 5 nM Tb-GST-antibody, 5 nM Fluormone Pan-PPAR Green, and serial dilutions of the experimental compound, beginning at 10 ׬M downwards, was added to wells of black 384-well low-volume plates (Greiner) to a total volume of 18 ׬L. All dilutions were made in TR-FRET assay buffer C. DMSO at 2% final concentration was used as a no-ligand control. Experiment was performed in triplicate, and incubated for 2 hours in the dark prior to assay read in Perkin Elmer ViewLux ultra HTS microplate reader. FRET signal was measured by excitation at 340 nm and emission at 520 nm for fluorescein and 490 nm for terbium. Fold change over DMSO was calculated using GraphPad Prism Software (La Jolla, Calif.) by calculating 520 nm/490 nm ratio. Graphs were plotted as fold change of FRET signal for compound treatment over DMSO-only control.

$$$$
CHEMBL3695816
Actelion Java MolfileCreator 2.0

  0  0  0  0  0  0              0 V3000
M  V30 BEGIN CTAB
M  V30 COUNTS 40 45 0 0 0
M  V30 BEGIN ATOM
M  V30 1 O 11.8592 -3.5669 0.0 0
M  V30 2 C 10.8811 -3.7748 0.0 0
M  V30 3 O 10.212 -3.0316 0.0 0
M  V30 4 C 10.5721 -4.7258 0.0 0
M  V30 5 C 9.5939 -4.9337 0.0 0
M  V30 6 C 11.2412 -5.469 0.0 0
M  V30 7 C 8.9248 -4.1906 0.0 0
M  V30 8 C 9.2849 -5.8848 0.0 0
M  V30 9 C 10.9322 -6.42 0.0 0
M  V30 10 C 9.2338 -3.2395 0.0 0
M  V30 11 C 7.9466 -4.3985 0.0 0
M  V30 12 C 9.954 -6.6279 0.0 0
M  V30 13 C 8.5647 -2.4964 0.0 0
M  V30 14 C 7.2775 -3.6554 0.0 0
M  V30 15 C 7.5865 -2.7043 0.0 0
M  V30 16 C 6.9174 -1.9612 0.0 0
M  V30 17 N 5.9392 -2.1691 0.0 0
M  V30 18 C 5.1961 -1.4999 0.0 0
M  V30 19 C 5.5325 -3.0826 0.0 0
M  V30 20 C 4.3301 -1.9999 0.0 0
M  V30 21 C 5.1961 -0.4999 0.0 0
M  V30 22 C 4.538 -2.9781 0.0 0
M  V30 23 C 6.0325 -3.9487 0.0 0
M  V30 24 C 3.4641 -1.5 0.0 0
M  V30 25 C 4.3301 0.0 0.0 0
M  V30 26 C 3.8689 -3.7212 0.0 0
M  V30 27 C 3.4641 -0.5 0.0 0
M  V30 28 C 2.598 0.0 0.0 0
M  V30 29 O 2.598 1.0 0.0 0
M  V30 30 N 1.732 -0.5 0.0 0
M  V30 31 C 0.866 0.0 0.0 0
M  V30 32 C 0.0 -0.5 0.0 0
M  V30 33 C -0.866 0.0 0.0 0
M  V30 34 C 0.0 -1.5 0.0 0
M  V30 35 C -1.732 -0.4999 0.0 0
M  V30 36 C -0.866 -1.9999 0.0 0
M  V30 37 O -2.6831 -0.1909 0.0 0
M  V30 38 C -1.732 -1.4999 0.0 0
M  V30 39 C -3.2708 -0.9999 0.0 0
M  V30 40 O -2.6831 -1.809 0.0 0
M  V30 END ATOM
M  V30 BEGIN BOND
M  V30 1 2 1 2
M  V30 2 1 2 3
M  V30 3 1 2 4
M  V30 4 2 4 5
M  V30 5 1 4 6
M  V30 6 1 5 7
M  V30 7 1 5 8
M  V30 8 2 6 9
M  V30 9 2 7 10
M  V30 10 1 7 11
M  V30 11 2 8 12
M  V30 12 1 10 13
M  V30 13 2 11 14
M  V30 14 2 13 15
M  V30 15 1 15 16
M  V30 16 1 16 17
M  V30 17 1 17 18
M  V30 18 1 17 19
M  V30 19 2 18 20
M  V30 20 1 18 21
M  V30 21 2 19 22
M  V30 22 1 19 23
M  V30 23 1 20 24
M  V30 24 2 21 25
M  V30 25 1 22 26
M  V30 26 2 24 27
M  V30 27 1 27 28
M  V30 28 2 28 29
M  V30 29 1 28 30
M  V30 30 1 30 31
M  V30 31 1 31 32
M  V30 32 2 32 33
M  V30 33 1 32 34
M  V30 34 1 33 35
M  V30 35 2 34 36
M  V30 36 1 35 37
M  V30 37 2 35 38
M  V30 38 1 37 39
M  V30 39 1 38 40
M  V30 40 1 9 12
M  V30 41 1 14 15
M  V30 42 1 20 22
M  V30 43 1 25 27
M  V30 44 1 36 38
M  V30 45 1 39 40
M  V30 END BOND
M  V30 END CTAB
M  END
>  <Molecule ChEMBL ID>
CHEMBL3695816

>  <Smiles>
Cc1c(C)n(Cc2ccc(-c3ccccc3C(=O)O)cc2)c2ccc(C(=O)NCc3ccc4c(c3)OCO4)cc12

>  <IC50_nM>
15

>  <Assay Description>
Displacement of fluormone PPAR green tracer ligand from recombinant GST-tagged PPARgamma ligand binding domain (unknown origin) incubated for 4 hrs by competitive fluorescence polarization binding assay

$$$$
CHEMBL255309
Actelion Java MolfileCreator 2.0

  0  0  0  0  0  0              0 V3000
M  V30 BEGIN CTAB
M  V30 COUNTS 40 44 0 0 0
M  V30 BEGIN ATOM
M  V30 1 O 9.5262 0.0 0.0 0
M  V30 2 C 8.6602 -0.5 0.0 0
M  V30 3 O 8.6602 -1.5 0.0 0
M  V30 4 N 7.7942 0.0 0.0 0
M  V30 5 C 7.7942 -2.0 0.0 0
M  V30 6 C 6.9282 -0.5 0.0 0
M  V30 7 C 7.7942 0.9999 0.0 0
M  V30 8 C 7.7942 -3.0 0.0 0
M  V30 9 C 6.9282 -1.5 0.0 0
M  V30 10 C 6.0621 0.0 0.0 0
M  V30 11 C 6.9282 1.4999 0.0 0
M  V30 12 C 6.9282 -3.5 0.0 0
M  V30 13 C 6.0621 -2.0 0.0 0
M  V30 14 C 5.1961 -0.5 0.0 0
M  V30 15 C 6.0621 0.9999 0.0 0
M  V30 16 C 6.0621 -3.0 0.0 0
M  V30 17 C 4.3301 0.0 0.0 0
M  V30 18 C 5.1961 -1.4999 0.0 0
M  V30 19 C 5.1961 1.4999 0.0 0
M  V30 20 C 3.4641 -0.5 0.0 0
M  V30 21 C 4.3301 -1.9999 0.0 0
M  V30 22 C 5.1961 2.5 0.0 0
M  V30 23 O 2.598 0.0 0.0 0
M  V30 24 C 3.4641 -1.4999 0.0 0
M  V30 25 O 6.0621 3.0 0.0 0
M  V30 26 O 4.3301 3.0 0.0 0
M  V30 27 C 1.732 -0.5 0.0 0
M  V30 28 C 0.866 0.0 0.0 0
M  V30 29 C 0.0 -0.5 0.0 0
M  V30 30 N -0.9135 -0.0932 0.0 0
M  V30 31 C -0.1045 -1.4945 0.0 0
M  V30 32 C -1.5826 -0.8364 0.0 0
M  V30 33 O -1.0826 -1.7024 0.0 0
M  V30 34 C 0.6386 -2.1636 0.0 0
M  V30 35 C -2.5771 -0.7318 0.0 0
M  V30 36 C -2.9839 0.1816 0.0 0
M  V30 37 C -3.1649 -1.5408 0.0 0
M  V30 38 C -3.9784 0.2861 0.0 0
M  V30 39 C -4.1595 -1.4363 0.0 0
M  V30 40 C -4.5662 -0.5228 0.0 0
M  V30 END ATOM
M  V30 BEGIN BOND
M  V30 1 2 1 2
M  V30 2 1 2 3
M  V30 3 1 2 4
M  V30 4 1 3 5
M  V30 5 1 4 6
M  V30 6 1 4 7
M  V30 7 2 5 8
M  V30 8 1 5 9
M  V30 9 1 6 10
M  V30 10 1 7 11
M  V30 11 1 8 12
M  V30 12 2 9 13
M  V30 13 1 10 14
M  V30 14 2 10 15
M  V30 15 2 12 16
M  V30 16 2 14 17
M  V30 17 1 14 18
M  V30 18 1 15 19
M  V30 19 1 17 20
M  V30 20 2 18 21
M  V30 21 1 19 22
M  V30 22 1 20 23
M  V30 23 2 20 24
M  V30 24 2 22 25
M  V30 25 1 22 26
M  V30 26 1 23 27
M  V30 27 1 27 28
M  V30 28 1 28 29
M  V30 29 1 29 30
M  V30 30 2 29 31
M  V30 31 2 30 32
M  V30 32 1 31 33
M  V30 33 1 31 34
M  V30 34 1 32 35
M  V30 35 2 35 36
M  V30 36 1 35 37
M  V30 37 1 36 38
M  V30 38 2 37 39
M  V30 39 2 38 40
M  V30 40 1 11 15
M  V30 41 1 13 16
M  V30 42 1 21 24
M  V30 43 1 32 33
M  V30 44 1 39 40
M  V30 END BOND
M  V30 END CTAB
M  END
>  <Molecule ChEMBL ID>
CHEMBL255309

>  <Smiles>
Cc1oc(-c2ccccc2)nc1CCOc1cccc(C2=C(CC(=O)O)CCN(C(=O)Oc3ccccc3)C2)c1

>  <IC50_nM>
16

>  <Assay Description>
Binding affinity at human PPARalpha by fluorescence polarization

$$$$
CHEMBL238970
Actelion Java MolfileCreator 2.0

  0  0  0  0  0  0              0 V3000
M  V30 BEGIN CTAB
M  V30 COUNTS 35 37 0 0 0
M  V30 BEGIN ATOM
M  V30 1 F 8.2942 -1.1339 0.0 0
M  V30 2 C 7.7942 -2.0 0.0 0
M  V30 3 F 8.6602 -2.5 0.0 0
M  V30 4 F 7.2942 -2.866 0.0 0
M  V30 5 C 6.9282 -1.5 0.0 0
M  V30 6 C 6.9282 -0.5 0.0 0
M  V30 7 C 6.0621 -2.0 0.0 0
M  V30 8 C 6.0621 0.0 0.0 0
M  V30 9 C 5.1961 -1.5 0.0 0
M  V30 10 C 5.1961 -0.5 0.0 0
M  V30 11 C 6.0621 0.9999 0.0 0
M  V30 12 O 4.3301 0.0 0.0 0
M  V30 13 N 6.9282 1.4999 0.0 0
M  V30 14 C 5.1961 1.5 0.0 0
M  V30 15 C 3.4641 -0.5 0.0 0 CFG=1
M  V30 16 C 6.9282 2.4999 0.0 0
M  V30 17 C 5.1961 2.5 0.0 0
M  V30 18 C 2.598 0.0 0.0 0
M  V30 19 C 3.4641 -1.5 0.0 0
M  V30 20 C 6.0621 2.9999 0.0 0
M  V30 21 C 1.732 -0.5 0.0 0
M  V30 22 O 0.866 0.0 0.0 0
M  V30 23 C 0.0 -0.5 0.0 0
M  V30 24 C -0.866 0.0 0.0 0
M  V30 25 C 0.0 -1.4999 0.0 0
M  V30 26 C -1.732 -0.4999 0.0 0
M  V30 27 C -0.866 -1.9999 0.0 0
M  V30 28 C -1.732 -1.4999 0.0 0
M  V30 29 C -2.598 0.0 0.0 0
M  V30 30 C -2.598 -1.9999 0.0 0
M  V30 31 C -3.4641 -0.4999 0.0 0
M  V30 32 C -2.598 -2.9999 0.0 0
M  V30 33 C -3.4641 -3.4999 0.0 0
M  V30 34 O -4.3301 -2.9999 0.0 0
M  V30 35 O -3.4641 -4.4999 0.0 0
M  V30 END ATOM
M  V30 BEGIN BOND
M  V30 1 1 1 2
M  V30 2 1 2 3
M  V30 3 1 2 4
M  V30 4 1 2 5
M  V30 5 2 5 6
M  V30 6 1 5 7
M  V30 7 1 6 8
M  V30 8 2 7 9
M  V30 9 2 8 10
M  V30 10 1 8 11
M  V30 11 1 10 12
M  V30 12 2 11 13
M  V30 13 1 11 14
M  V30 14 1 12 15
M  V30 15 1 13 16
M  V30 16 2 14 17
M  V30 17 1 15 18
M  V30 18 1 15 19 CFG=3
M  V30 19 2 16 20
M  V30 20 1 18 21
M  V30 21 1 21 22
M  V30 22 1 22 23
M  V30 23 2 23 24
M  V30 24 1 23 25
M  V30 25 1 24 26
M  V30 26 2 25 27
M  V30 27 2 26 28
M  V30 28 1 26 29
M  V30 29 1 28 30
M  V30 30 1 29 31
M  V30 31 1 30 32
M  V30 32 1 32 33
M  V30 33 2 33 34
M  V30 34 1 33 35
M  V30 35 1 9 10
M  V30 36 1 17 20
M  V30 37 1 27 28
M  V30 END BOND
M  V30 BEGIN COLLECTION
M  V30 MDLV30/STEABS ATOMS=(1 15)
M  V30 END COLLECTION
M  V30 END CTAB
M  END
>  <Molecule ChEMBL ID>
CHEMBL238970

>  <Smiles>
CCc1cc(OCC[C@@H](C)Oc2ccc(C(F)(F)F)cc2-c2ccccn2)ccc1CCC(=O)O

>  <IC50_nM>
16

>  <Assay Description>
Agonist activity at PPARgamma

$$$$
CHEMBL3695896
Actelion Java MolfileCreator 2.0

  0  0  0  0  0  0              0 V3000
M  V30 BEGIN CTAB
M  V30 COUNTS 37 41 0 0 0
M  V30 BEGIN ATOM
M  V30 1 O 1.732 -0.5 0.0 0
M  V30 2 C 2.598 0.0 0.0 0
M  V30 3 N 3.4641 -0.4999 0.0 0
M  V30 4 C 2.598 1.0 0.0 0
M  V30 5 C 4.3301 0.0 0.0 0 CFG=2
M  V30 6 C 1.732 1.4999 0.0 0
M  V30 7 C 3.4641 1.5 0.0 0
M  V30 8 C 5.1961 -0.4999 0.0 0
M  V30 9 C 4.3301 1.0 0.0 0
M  V30 10 C 1.732 2.4999 0.0 0
M  V30 11 C 3.4641 2.5 0.0 0
M  V30 12 C 6.0621 0.0 0.0 0
M  V30 13 C 5.1961 -1.4999 0.0 0
M  V30 14 C 2.598 3.0 0.0 0
M  V30 15 C 0.9889 3.1691 0.0 0
M  V30 16 O 6.0621 1.0 0.0 0
M  V30 17 C 6.9282 -0.4999 0.0 0
M  V30 18 C 6.0621 -1.9999 0.0 0
M  V30 19 N 2.3901 3.9781 0.0 0
M  V30 20 C 1.3956 4.0826 0.0 0
M  V30 21 C 0.0107 2.9612 0.0 0
M  V30 22 C 5.1961 1.5 0.0 0
M  V30 23 C 6.9282 -1.4999 0.0 0
M  V30 24 C 3.0592 4.7212 0.0 0
M  V30 25 C 0.8956 4.9487 0.0 0
M  V30 26 C 2.7502 5.6723 0.0 0
M  V30 27 C 3.4194 6.4154 0.0 0
M  V30 28 C 1.7721 5.8802 0.0 0
M  V30 29 C 3.1103 7.3665 0.0 0
M  V30 30 C 1.4631 6.8313 0.0 0
M  V30 31 C 2.1322 7.5744 0.0 0
M  V30 32 C 1.8232 8.5255 0.0 0
M  V30 33 C 2.4923 9.2686 0.0 0
M  V30 34 C 0.845 8.7334 0.0 0
M  V30 35 C 2.1833 10.2197 0.0 0
M  V30 36 C 0.536 9.6844 0.0 0
M  V30 37 C 1.2051 10.4276 0.0 0
M  V30 END ATOM
M  V30 BEGIN BOND
M  V30 1 2 1 2
M  V30 2 1 2 3
M  V30 3 1 2 4
M  V30 4 1 3 5
M  V30 5 2 4 6
M  V30 6 1 4 7
M  V30 7 1 5 8
M  V30 8 1 5 9 CFG=1
M  V30 9 1 6 10
M  V30 10 2 7 11
M  V30 11 2 8 12
M  V30 12 1 8 13
M  V30 13 2 10 14
M  V30 14 1 10 15
M  V30 15 1 12 16
M  V30 16 1 12 17
M  V30 17 2 13 18
M  V30 18 1 14 19
M  V30 19 2 15 20
M  V30 20 1 15 21
M  V30 21 1 16 22
M  V30 22 2 17 23
M  V30 23 1 19 24
M  V30 24 1 20 25
M  V30 25 1 24 26
M  V30 26 2 26 27
M  V30 27 1 26 28
M  V30 28 1 27 29
M  V30 29 2 28 30
M  V30 30 2 29 31
M  V30 31 1 31 32
M  V30 32 2 32 33
M  V30 33 1 32 34
M  V30 34 1 33 35
M  V30 35 2 34 36
M  V30 36 2 35 37
M  V30 37 1 11 14
M  V30 38 1 18 23
M  V30 39 1 19 20
M  V30 40 1 30 31
M  V30 41 1 36 37
M  V30 END BOND
M  V30 BEGIN COLLECTION
M  V30 MDLV30/STEABS ATOMS=(1 5)
M  V30 END COLLECTION
M  V30 END CTAB
M  END
>  <Molecule ChEMBL ID>
CHEMBL3695896

>  <Smiles>
COc1ccccc1[C@H](C)NC(=O)c1ccc2c(c1)c(C)c(C)n2Cc1ccc(-c2ccccc2)cc1

>  <IC50_nM>
16

>  <Assay Description>
Lanthascreen Competitive Binding Assay: The assay was performed according to manufacturer protocol. A mixture of nM GST-PPARG-LBD, 5 nM Tb-GST-antibody, 5 nM Fluormone Pan-PPAR Green, and serial dilutions of the experimental compound, beginning at 10 ׬M downwards, was added to wells of black 384-well low-volume plates (Greiner) to a total volume of 18 ׬L. All dilutions were made in TR-FRET assay buffer C. DMSO at 2% final concentration was used as a no-ligand control. Experiment was performed in triplicate, and incubated for 2 hours in the dark prior to assay read in Perkin Elmer ViewLux ultra HTS microplate reader. FRET signal was measured by excitation at 340 nm and emission at 520 nm for fluorescein and 490 nm for terbium. Fold change over DMSO was calculated using GraphPad Prism Software (La Jolla, Calif.) by calculating 520 nm/490 nm ratio. Graphs were plotted as fold change of FRET signal for compound treatment over DMSO-only control.

$$$$
CHEMBL510180
Actelion Java MolfileCreator 2.0

  0  0  0  0  0  0              0 V3000
M  V30 BEGIN CTAB
M  V30 COUNTS 34 37 0 0 0
M  V30 BEGIN ATOM
M  V30 1 O 7.8298 -3.4249 0.0 0
M  V30 2 C 8.4176 -2.6159 0.0 0
M  V30 3 C 9.4121 -2.7205 0.0 0
M  V30 4 C 8.0108 -1.7024 0.0 0
M  V30 5 C 9.8188 -3.634 0.0 0
M  V30 6 C 9.9999 -1.9114 0.0 0
M  V30 7 C 8.5108 -0.8364 0.0 0
M  V30 8 C 7.0327 -1.4945 0.0 0
M  V30 9 C 10.8133 -3.7385 0.0 0
M  V30 10 C 10.9944 -2.016 0.0 0
M  V30 11 C 7.8417 -0.0932 0.0 0
M  V30 12 C 9.489 -0.6284 0.0 0
M  V30 13 N 6.9282 -0.5 0.0 0
M  V30 14 C 6.2895 -2.1636 0.0 0
M  V30 15 C 11.4011 -2.9295 0.0 0
M  V30 16 N 8.1507 0.8577 0.0 0
M  V30 17 C 9.798 0.3225 0.0 0
M  V30 18 C 6.0621 0.0 0.0 0
M  V30 19 O 12.3957 -3.034 0.0 0
M  V30 20 C 9.1289 1.0657 0.0 0
M  V30 21 C 5.1961 -0.5 0.0 0
M  V30 22 C 12.9834 -2.225 0.0 0
M  V30 23 C 9.4379 2.0167 0.0 0
M  V30 24 C 4.3301 0.0 0.0 0
M  V30 25 C 5.1961 -1.4999 0.0 0
M  V30 26 C 3.4641 -0.5 0.0 0
M  V30 27 C 4.3301 -1.9999 0.0 0
M  V30 28 O 2.598 0.0 0.0 0
M  V30 29 C 3.4641 -1.4999 0.0 0
M  V30 30 C 1.732 -0.5 0.0 0 CFG=2
M  V30 31 C 0.866 0.0 0.0 0
M  V30 32 C 1.732 -1.5 0.0 0
M  V30 33 O 0.866 1.0 0.0 0
M  V30 34 O 0.0 -0.5 0.0 0
M  V30 END ATOM
M  V30 BEGIN BOND
M  V30 1 2 1 2
M  V30 2 1 2 3
M  V30 3 1 2 4
M  V30 4 2 3 5
M  V30 5 1 3 6
M  V30 6 1 4 7
M  V30 7 2 4 8
M  V30 8 1 5 9
M  V30 9 2 6 10
M  V30 10 2 7 11
M  V30 11 1 7 12
M  V30 12 1 8 13
M  V30 13 1 8 14
M  V30 14 2 9 15
M  V30 15 1 11 16
M  V30 16 2 12 17
M  V30 17 1 13 18
M  V30 18 1 15 19
M  V30 19 2 16 20
M  V30 20 1 18 21
M  V30 21 1 19 22
M  V30 22 1 20 23
M  V30 23 2 21 24
M  V30 24 1 21 25
M  V30 25 1 24 26
M  V30 26 2 25 27
M  V30 27 1 26 28
M  V30 28 2 26 29
M  V30 29 1 28 30
M  V30 30 1 30 31
M  V30 31 1 30 32 CFG=1
M  V30 32 2 31 33
M  V30 33 1 31 34
M  V30 34 1 10 15
M  V30 35 1 11 13
M  V30 36 1 17 20
M  V30 37 1 27 29
M  V30 END BOND
M  V30 BEGIN COLLECTION
M  V30 MDLV30/STEABS ATOMS=(1 30)
M  V30 END COLLECTION
M  V30 END CTAB
M  END
>  <Molecule ChEMBL ID>
CHEMBL510180

>  <Smiles>
COc1ccc(C(=O)c2c(C)n(Cc3cccc(O[C@@H](C)C(=O)O)c3)c3nc(C)ccc23)cc1

>  <IC50_nM>
16

>  <Assay Description>
Displacement of [3H]2AD-5075 from GST-tagged human PPARgamma receptor expressed in Escherichia coli BL21

$$$$
CHEMBL4591564
Actelion Java MolfileCreator 2.0

  0  0  0  0  0  0              0 V3000
M  V30 BEGIN CTAB
M  V30 COUNTS 35 39 0 0 0
M  V30 BEGIN ATOM
M  V30 1 F 10.004 -2.0535 0.0 0
M  V30 2 C 10.212 -3.0316 0.0 0
M  V30 3 F 11.1901 -2.8237 0.0 0
M  V30 4 F 10.4199 -4.0098 0.0 0
M  V30 5 C 9.2338 -3.2395 0.0 0
M  V30 6 C 8.5647 -2.4964 0.0 0
M  V30 7 C 8.9248 -4.1906 0.0 0
M  V30 8 C 7.5865 -2.7043 0.0 0
M  V30 9 C 7.9466 -4.3985 0.0 0
M  V30 10 C 7.2775 -3.6554 0.0 0
M  V30 11 C 6.9174 -1.9612 0.0 0
M  V30 12 N 5.9392 -2.1691 0.0 0
M  V30 13 C 5.1961 -1.4999 0.0 0
M  V30 14 C 5.5325 -3.0826 0.0 0
M  V30 15 C 4.3301 -1.9999 0.0 0
M  V30 16 C 5.1961 -0.4999 0.0 0
M  V30 17 C 4.538 -2.9781 0.0 0
M  V30 18 C 6.0325 -3.9487 0.0 0
M  V30 19 C 3.4641 -1.5 0.0 0
M  V30 20 C 4.3301 0.0 0.0 0
M  V30 21 C 3.8689 -3.7212 0.0 0
M  V30 22 C 3.4641 -0.5 0.0 0
M  V30 23 C 2.598 0.0 0.0 0
M  V30 24 O 2.598 1.0 0.0 0
M  V30 25 N 1.732 -0.5 0.0 0
M  V30 26 C 0.866 0.0 0.0 0
M  V30 27 C 0.0 -0.5 0.0 0
M  V30 28 C -0.866 0.0 0.0 0
M  V30 29 C 0.0 -1.5 0.0 0
M  V30 30 C -1.732 -0.4999 0.0 0
M  V30 31 C -0.866 -1.9999 0.0 0
M  V30 32 O -2.6831 -0.1909 0.0 0
M  V30 33 C -1.732 -1.4999 0.0 0
M  V30 34 C -3.2708 -0.9999 0.0 0
M  V30 35 O -2.6831 -1.809 0.0 0
M  V30 END ATOM
M  V30 BEGIN BOND
M  V30 1 1 1 2
M  V30 2 1 2 3
M  V30 3 1 2 4
M  V30 4 1 2 5
M  V30 5 2 5 6
M  V30 6 1 5 7
M  V30 7 1 6 8
M  V30 8 2 7 9
M  V30 9 2 8 10
M  V30 10 1 8 11
M  V30 11 1 11 12
M  V30 12 1 12 13
M  V30 13 1 12 14
M  V30 14 2 13 15
M  V30 15 1 13 16
M  V30 16 2 14 17
M  V30 17 1 14 18
M  V30 18 1 15 19
M  V30 19 2 16 20
M  V30 20 1 17 21
M  V30 21 2 19 22
M  V30 22 1 22 23
M  V30 23 2 23 24
M  V30 24 1 23 25
M  V30 25 1 25 26
M  V30 26 1 26 27
M  V30 27 2 27 28
M  V30 28 1 27 29
M  V30 29 1 28 30
M  V30 30 2 29 31
M  V30 31 1 30 32
M  V30 32 2 30 33
M  V30 33 1 32 34
M  V30 34 1 33 35
M  V30 35 1 9 10
M  V30 36 1 15 17
M  V30 37 1 20 22
M  V30 38 1 31 33
M  V30 39 1 34 35
M  V30 END BOND
M  V30 END CTAB
M  END
>  <Molecule ChEMBL ID>
CHEMBL4591564

>  <Smiles>
Cc1c(C)n(Cc2cccc(C(F)(F)F)c2)c2ccc(C(=O)NCc3ccc4c(c3)OCO4)cc12

>  <IC50_nM>
16

>  <Assay Description>
Displacement of fluormone PPAR green tracer ligand from recombinant GST-tagged PPARgamma ligand binding domain (unknown origin) incubated for 4 hrs by competitive fluorescence polarization binding assay

$$$$
CHEMBL238970
Actelion Java MolfileCreator 2.0

  0  0  0  0  0  0              0 V3000
M  V30 BEGIN CTAB
M  V30 COUNTS 35 37 0 0 0
M  V30 BEGIN ATOM
M  V30 1 F 8.2942 -1.1339 0.0 0
M  V30 2 C 7.7942 -2.0 0.0 0
M  V30 3 F 8.6602 -2.5 0.0 0
M  V30 4 F 7.2942 -2.866 0.0 0
M  V30 5 C 6.9282 -1.5 0.0 0
M  V30 6 C 6.9282 -0.5 0.0 0
M  V30 7 C 6.0621 -2.0 0.0 0
M  V30 8 C 6.0621 0.0 0.0 0
M  V30 9 C 5.1961 -1.5 0.0 0
M  V30 10 C 5.1961 -0.5 0.0 0
M  V30 11 C 6.0621 0.9999 0.0 0
M  V30 12 O 4.3301 0.0 0.0 0
M  V30 13 N 6.9282 1.4999 0.0 0
M  V30 14 C 5.1961 1.5 0.0 0
M  V30 15 C 3.4641 -0.5 0.0 0 CFG=1
M  V30 16 C 6.9282 2.4999 0.0 0
M  V30 17 C 5.1961 2.5 0.0 0
M  V30 18 C 2.598 0.0 0.0 0
M  V30 19 C 3.4641 -1.5 0.0 0
M  V30 20 C 6.0621 2.9999 0.0 0
M  V30 21 C 1.732 -0.5 0.0 0
M  V30 22 O 0.866 0.0 0.0 0
M  V30 23 C 0.0 -0.5 0.0 0
M  V30 24 C -0.866 0.0 0.0 0
M  V30 25 C 0.0 -1.4999 0.0 0
M  V30 26 C -1.732 -0.4999 0.0 0
M  V30 27 C -0.866 -1.9999 0.0 0
M  V30 28 C -1.732 -1.4999 0.0 0
M  V30 29 C -2.598 0.0 0.0 0
M  V30 30 C -2.598 -1.9999 0.0 0
M  V30 31 C -3.4641 -0.4999 0.0 0
M  V30 32 C -2.598 -2.9999 0.0 0
M  V30 33 C -3.4641 -3.4999 0.0 0
M  V30 34 O -4.3301 -2.9999 0.0 0
M  V30 35 O -3.4641 -4.4999 0.0 0
M  V30 END ATOM
M  V30 BEGIN BOND
M  V30 1 1 1 2
M  V30 2 1 2 3
M  V30 3 1 2 4
M  V30 4 1 2 5
M  V30 5 2 5 6
M  V30 6 1 5 7
M  V30 7 1 6 8
M  V30 8 2 7 9
M  V30 9 2 8 10
M  V30 10 1 8 11
M  V30 11 1 10 12
M  V30 12 2 11 13
M  V30 13 1 11 14
M  V30 14 1 12 15
M  V30 15 1 13 16
M  V30 16 2 14 17
M  V30 17 1 15 18
M  V30 18 1 15 19 CFG=3
M  V30 19 2 16 20
M  V30 20 1 18 21
M  V30 21 1 21 22
M  V30 22 1 22 23
M  V30 23 2 23 24
M  V30 24 1 23 25
M  V30 25 1 24 26
M  V30 26 2 25 27
M  V30 27 2 26 28
M  V30 28 1 26 29
M  V30 29 1 28 30
M  V30 30 1 29 31
M  V30 31 1 30 32
M  V30 32 1 32 33
M  V30 33 2 33 34
M  V30 34 1 33 35
M  V30 35 1 9 10
M  V30 36 1 17 20
M  V30 37 1 27 28
M  V30 END BOND
M  V30 BEGIN COLLECTION
M  V30 MDLV30/STEABS ATOMS=(1 15)
M  V30 END COLLECTION
M  V30 END CTAB
M  END
>  <Molecule ChEMBL ID>
CHEMBL238970

>  <Smiles>
CCc1cc(OCC[C@@H](C)Oc2ccc(C(F)(F)F)cc2-c2ccccn2)ccc1CCC(=O)O

>  <IC50_nM>
16

>  <Assay Description>
Displacement of [3H]2-methyl-2-(4-{3-[porpyl-(5-pyridin-2yl-thiophene-2-sulfonyl)-amino]-propyl}-phenoxy)-propionic acid from human PPARgamma

$$$$
CHEMBL560830
Actelion Java MolfileCreator 2.0

  0  0  0  0  0  0              0 V3000
M  V30 BEGIN CTAB
M  V30 COUNTS 39 43 0 0 0
M  V30 BEGIN ATOM
M  V30 1 Cl 4.3301 -1.9999 0.0 0
M  V30 2 C 3.4641 -1.4999 0.0 0
M  V30 3 C 3.4641 -0.5 0.0 0
M  V30 4 C 2.598 -1.9999 0.0 0
M  V30 5 C 2.598 0.0 0.0 0
M  V30 6 C 1.732 -1.5 0.0 0
M  V30 7 C 1.732 -0.5 0.0 0
M  V30 8 C 0.866 0.0 0.0 0
M  V30 9 O 0.866 1.0 0.0 0
M  V30 10 C 0.0 -0.5 0.0 0
M  V30 11 C -0.9135 -0.0932 0.0 0
M  V30 12 C -0.1045 -1.4945 0.0 0
M  V30 13 C -1.5826 -0.8364 0.0 0
M  V30 14 C -1.2225 0.8577 0.0 0
M  V30 15 N -1.0826 -1.7024 0.0 0
M  V30 16 C 0.6386 -2.1636 0.0 0
M  V30 17 C -2.5608 -0.6284 0.0 0
M  V30 18 C -2.2007 1.0657 0.0 0
M  V30 19 C -1.4894 -2.6159 0.0 0
M  V30 20 C -2.8698 0.3225 0.0 0
M  V30 21 C -0.9016 -3.4249 0.0 0
M  V30 22 O -3.8479 0.5304 0.0 0
M  V30 23 C -1.3083 -4.3385 0.0 0
M  V30 24 C 0.0928 -3.3204 0.0 0
M  V30 25 C -4.5171 -0.2126 0.0 0
M  V30 26 C -0.7205 -5.1475 0.0 0
M  V30 27 C 0.6806 -4.1294 0.0 0
M  V30 28 F -3.7739 -0.8818 0.0 0
M  V30 29 F -5.1862 -0.9558 0.0 0
M  V30 30 F -5.2602 0.4564 0.0 0
M  V30 31 O -1.1273 -6.0611 0.0 0
M  V30 32 C 0.2739 -5.043 0.0 0
M  V30 33 C -2.1218 -6.1656 0.0 0
M  V30 34 C -1.6446 -7.0444 0.0 0
M  V30 35 C -2.8989 -5.5363 0.0 0
M  V30 36 C -2.7511 -6.9427 0.0 0
M  V30 37 O -2.1671 -7.897 0.0 0
M  V30 38 O -0.645 -7.0706 0.0 0
M  V30 39 C -3.5283 -6.3134 0.0 0
M  V30 END ATOM
M  V30 BEGIN BOND
M  V30 1 1 1 2
M  V30 2 2 2 3
M  V30 3 1 2 4
M  V30 4 1 3 5
M  V30 5 2 4 6
M  V30 6 2 5 7
M  V30 7 1 7 8
M  V30 8 2 8 9
M  V30 9 1 8 10
M  V30 10 1 10 11
M  V30 11 2 10 12
M  V30 12 2 11 13
M  V30 13 1 11 14
M  V30 14 1 12 15
M  V30 15 1 12 16
M  V30 16 1 13 17
M  V30 17 2 14 18
M  V30 18 1 15 19
M  V30 19 2 17 20
M  V30 20 1 19 21
M  V30 21 1 20 22
M  V30 22 2 21 23
M  V30 23 1 21 24
M  V30 24 1 22 25
M  V30 25 1 23 26
M  V30 26 2 24 27
M  V30 27 1 25 28
M  V30 28 1 25 29
M  V30 29 1 25 30
M  V30 30 1 26 31
M  V30 31 2 26 32
M  V30 32 1 31 33
M  V30 33 1 33 34
M  V30 34 1 33 35
M  V30 35 1 33 36
M  V30 36 2 34 37
M  V30 37 1 34 38
M  V30 38 1 35 39
M  V30 39 1 6 7
M  V30 40 1 13 15
M  V30 41 1 18 20
M  V30 42 1 27 32
M  V30 43 1 36 39
M  V30 END BOND
M  V30 END CTAB
M  END
>  <Molecule ChEMBL ID>
CHEMBL560830

>  <Smiles>
Cc1c(C(=O)c2ccc(Cl)cc2)c2ccc(OC(F)(F)F)cc2n1Cc1cccc(OC2(C(=O)O)CCC2)c1

>  <IC50_nM>
16

>  <Assay Description>
Inhibition of human PPARgamma receptor by scintillation proximity assay

$$$$
CHEMBL3678159
Actelion Java MolfileCreator 2.0

  0  0  0  0  0  0              0 V3000
M  V30 BEGIN CTAB
M  V30 COUNTS 40 43 0 0 0
M  V30 BEGIN ATOM
M  V30 1 F 4.3301 0.9999 0.0 0
M  V30 2 C 4.3301 0.0 0.0 0
M  V30 3 C 3.4641 -0.5 0.0 0
M  V30 4 C 5.1961 -0.5 0.0 0
M  V30 5 O 2.598 0.0 0.0 0
M  V30 6 C 3.4641 -1.5 0.0 0
M  V30 7 C 5.1961 -1.5 0.0 0
M  V30 8 C 1.732 -0.5 0.0 0 CFG=2
M  V30 9 C 4.3301 -2.0 0.0 0
M  V30 10 C 0.866 0.0 0.0 0
M  V30 11 C 1.732 -1.5 0.0 0
M  V30 12 C 4.3301 -3.0 0.0 0
M  V30 13 O 0.866 1.0 0.0 0
M  V30 14 O 0.0 -0.5 0.0 0
M  V30 15 N 5.1961 -3.5 0.0 0
M  V30 16 C 5.3006 -4.4945 0.0 0
M  V30 17 C 6.1096 -3.0932 0.0 0
M  V30 18 C 6.2788 -4.7024 0.0 0
M  V30 19 C 4.6315 -5.2376 0.0 0
M  V30 20 C 6.7788 -3.8364 0.0 0
M  V30 21 C 6.3176 -2.1151 0.0 0
M  V30 22 C 6.5878 -5.6534 0.0 0
M  V30 23 C 4.9405 -6.1887 0.0 0
M  V30 24 C 7.7733 -3.7318 0.0 0
M  V30 25 C 5.9187 -6.3966 0.0 0
M  V30 26 C 6.2277 -7.3476 0.0 0
M  V30 27 O 5.5586 -8.0908 0.0 0
M  V30 28 N 7.2058 -7.5556 0.0 0
M  V30 29 C 7.5148 -8.5066 0.0 0 CFG=2
M  V30 30 C 6.8457 -9.2498 0.0 0
M  V30 31 C 8.493 -8.7145 0.0 0
M  V30 32 C 5.8676 -9.0418 0.0 0
M  V30 33 C 7.1547 -10.2008 0.0 0
M  V30 34 C 5.1984 -9.785 0.0 0
M  V30 35 C 6.4856 -10.944 0.0 0
M  V30 36 C 5.5075 -10.736 0.0 0
M  V30 37 C 4.8383 -11.4792 0.0 0
M  V30 38 C 5.5815 -12.1483 0.0 0
M  V30 39 C 4.1692 -12.2223 0.0 0
M  V30 40 C 4.0952 -10.8101 0.0 0
M  V30 END ATOM
M  V30 BEGIN BOND
M  V30 1 1 1 2
M  V30 2 2 2 3
M  V30 3 1 2 4
M  V30 4 1 3 5
M  V30 5 1 3 6
M  V30 6 2 4 7
M  V30 7 1 5 8
M  V30 8 2 6 9
M  V30 9 1 8 10
M  V30 10 1 8 11 CFG=1
M  V30 11 1 9 12
M  V30 12 2 10 13
M  V30 13 1 10 14
M  V30 14 1 12 15
M  V30 15 1 15 16
M  V30 16 1 15 17
M  V30 17 2 16 18
M  V30 18 1 16 19
M  V30 19 2 17 20
M  V30 20 1 17 21
M  V30 21 1 18 22
M  V30 22 2 19 23
M  V30 23 1 20 24
M  V30 24 2 22 25
M  V30 25 1 25 26
M  V30 26 2 26 27
M  V30 27 1 26 28
M  V30 28 1 28 29
M  V30 29 1 29 30
M  V30 30 1 29 31 CFG=1
M  V30 31 2 30 32
M  V30 32 1 30 33
M  V30 33 1 32 34
M  V30 34 2 33 35
M  V30 35 2 34 36
M  V30 36 1 36 37
M  V30 37 1 37 38
M  V30 38 1 37 39
M  V30 39 1 37 40
M  V30 40 1 7 9
M  V30 41 1 18 20
M  V30 42 1 23 25
M  V30 43 1 35 36
M  V30 END BOND
M  V30 BEGIN COLLECTION
M  V30 MDLV30/STEABS ATOMS=(2 8 29)
M  V30 END COLLECTION
M  V30 END CTAB
M  END
>  <Molecule ChEMBL ID>
CHEMBL3678159

>  <Smiles>
Cc1c(C)n(Cc2ccc(F)c(O[C@@H](C)C(=O)O)c2)c2ccc(C(=O)N[C@@H](C)c3ccc(C(C)(C)C)cc3)cc12

>  <IC50_nM>
16

>  <Assay Description>
Lanthascreen Competitive Binding Assay: The assay was performed according to manufacturer protocol. A mixture of 5 nM GST-PPARG-LBD, 5 nM Tb-GST-antibody, 5 nM Fluormone Pan- PPAR Green, and serial dilutions of the experimental compound, beginning at 10 ׬� downwards, was added to wells of black 384-well low- volume plates (Greiner) to a total volume of 18 xL. All dilutions were made in TR-FRET assay buffer C. DMSO at 2% final concentration was used as a no-ligand control. Experiment was performed in triplicate, and incubated for 2 hours in the dark prior to assay read in Perkin Elmer ViewLux ultra HTS microplate reader. FRET signal was measured by excitation at 340 nm and emission at 520 nm for fluorescein and 490 nm for terbium.

$$$$
CHEMBL3695777
Actelion Java MolfileCreator 2.0

  0  0  0  0  0  0              0 V3000
M  V30 BEGIN CTAB
M  V30 COUNTS 41 45 0 0 0
M  V30 BEGIN ATOM
M  V30 1 O 11.8592 -3.5669 0.0 0
M  V30 2 C 10.8811 -3.7748 0.0 0
M  V30 3 O 10.212 -3.0316 0.0 0
M  V30 4 C 10.5721 -4.7258 0.0 0
M  V30 5 C 9.5939 -4.9337 0.0 0
M  V30 6 C 11.2412 -5.469 0.0 0
M  V30 7 C 8.9248 -4.1906 0.0 0
M  V30 8 C 9.2849 -5.8848 0.0 0
M  V30 9 C 10.9322 -6.42 0.0 0
M  V30 10 C 9.2338 -3.2395 0.0 0
M  V30 11 C 7.9466 -4.3985 0.0 0
M  V30 12 C 9.954 -6.6279 0.0 0
M  V30 13 C 8.5647 -2.4964 0.0 0
M  V30 14 C 7.2775 -3.6554 0.0 0
M  V30 15 C 7.5865 -2.7043 0.0 0
M  V30 16 C 6.9174 -1.9612 0.0 0
M  V30 17 N 5.9392 -2.1691 0.0 0
M  V30 18 C 5.1961 -1.4999 0.0 0
M  V30 19 C 5.5325 -3.0826 0.0 0
M  V30 20 C 4.3301 -1.9999 0.0 0
M  V30 21 C 5.1961 -0.4999 0.0 0
M  V30 22 C 4.538 -2.9781 0.0 0
M  V30 23 C 6.0325 -3.9487 0.0 0
M  V30 24 C 3.4641 -1.5 0.0 0
M  V30 25 C 4.3301 0.0 0.0 0
M  V30 26 C 3.8689 -3.7212 0.0 0
M  V30 27 C 3.4641 -0.5 0.0 0
M  V30 28 C 2.598 0.0 0.0 0
M  V30 29 O 2.598 1.0 0.0 0
M  V30 30 N 1.732 -0.5 0.0 0
M  V30 31 C 0.866 0.0 0.0 0
M  V30 32 C 0.0 -0.5 0.0 0
M  V30 33 C -0.866 0.0 0.0 0
M  V30 34 C 0.0 -1.4999 0.0 0
M  V30 35 O -0.866 1.0 0.0 0
M  V30 36 C -1.732 -0.4999 0.0 0
M  V30 37 C -0.866 -1.9999 0.0 0
M  V30 38 C -1.732 1.5 0.0 0
M  V30 39 C -1.732 -1.4999 0.0 0
M  V30 40 O -2.598 -1.9999 0.0 0
M  V30 41 C -2.598 -2.9999 0.0 0
M  V30 END ATOM
M  V30 BEGIN BOND
M  V30 1 2 1 2
M  V30 2 1 2 3
M  V30 3 1 2 4
M  V30 4 2 4 5
M  V30 5 1 4 6
M  V30 6 1 5 7
M  V30 7 1 5 8
M  V30 8 2 6 9
M  V30 9 2 7 10
M  V30 10 1 7 11
M  V30 11 2 8 12
M  V30 12 1 10 13
M  V30 13 2 11 14
M  V30 14 2 13 15
M  V30 15 1 15 16
M  V30 16 1 16 17
M  V30 17 1 17 18
M  V30 18 1 17 19
M  V30 19 2 18 20
M  V30 20 1 18 21
M  V30 21 2 19 22
M  V30 22 1 19 23
M  V30 23 1 20 24
M  V30 24 2 21 25
M  V30 25 1 22 26
M  V30 26 2 24 27
M  V30 27 1 27 28
M  V30 28 2 28 29
M  V30 29 1 28 30
M  V30 30 1 30 31
M  V30 31 1 31 32
M  V30 32 2 32 33
M  V30 33 1 32 34
M  V30 34 1 33 35
M  V30 35 1 33 36
M  V30 36 2 34 37
M  V30 37 1 35 38
M  V30 38 2 36 39
M  V30 39 1 39 40
M  V30 40 1 40 41
M  V30 41 1 9 12
M  V30 42 1 14 15
M  V30 43 1 20 22
M  V30 44 1 25 27
M  V30 45 1 37 39
M  V30 END BOND
M  V30 END CTAB
M  END
>  <Molecule ChEMBL ID>
CHEMBL3695777

>  <Smiles>
COc1ccc(CNC(=O)c2ccc3c(c2)c(C)c(C)n3Cc2ccc(-c3ccccc3C(=O)O)cc2)c(OC)c1

>  <IC50_nM>
16

>  <Assay Description>
Lanthascreen Competitive Binding Assay: The assay was performed according to manufacturer protocol. A mixture of nM GST-PPARG-LBD, 5 nM Tb-GST-antibody, 5 nM Fluormone Pan-PPAR Green, and serial dilutions of the experimental compound, beginning at 10 ׬M downwards, was added to wells of black 384-well low-volume plates (Greiner) to a total volume of 18 ׬L. All dilutions were made in TR-FRET assay buffer C. DMSO at 2% final concentration was used as a no-ligand control. Experiment was performed in triplicate, and incubated for 2 hours in the dark prior to assay read in Perkin Elmer ViewLux ultra HTS microplate reader. FRET signal was measured by excitation at 340 nm and emission at 520 nm for fluorescein and 490 nm for terbium. Fold change over DMSO was calculated using GraphPad Prism Software (La Jolla, Calif.) by calculating 520 nm/490 nm ratio. Graphs were plotted as fold change of FRET signal for compound treatment over DMSO-only control.

$$$$
CHEMBL237519
Actelion Java MolfileCreator 2.0

  0  0  0  0  0  0              0 V3000
M  V30 BEGIN CTAB
M  V30 COUNTS 37 39 0 0 0
M  V30 BEGIN ATOM
M  V30 1 F 6.4951 1.5 0.0 0
M  V30 2 C 6.4951 0.0 0.0 0
M  V30 3 C 5.1961 -0.75 0.0 0
M  V30 4 C 7.7942 -0.75 0.0 0
M  V30 5 C 3.8971 0.0 0.0 0
M  V30 6 C 5.1961 -2.25 0.0 0
M  V30 7 C 7.7942 -2.25 0.0 0
M  V30 8 O 3.8971 1.5 0.0 0
M  V30 9 N 2.598 -0.75 0.0 0
M  V30 10 C 6.4951 -3.0 0.0 0
M  V30 11 C 9.0932 -3.0 0.0 0
M  V30 12 C 1.299 0.0 0.0 0
M  V30 13 F 9.8432 -1.7009 0.0 0
M  V30 14 F 10.3923 -3.75 0.0 0
M  V30 15 F 8.3432 -4.299 0.0 0
M  V30 16 C 0.0 -0.75 0.0 0
M  V30 17 C -1.299 0.0 0.0 0
M  V30 18 C 0.0 -2.25 0.0 0
M  V30 19 C -2.598 -0.75 0.0 0
M  V30 20 C -1.299 1.5 0.0 0
M  V30 21 C -1.299 -3.0 0.0 0
M  V30 22 C -2.598 -2.25 0.0 0
M  V30 23 O -1.299 -4.5 0.0 0
M  V30 24 C 0.0 -5.25 0.0 0
M  V30 25 C 0.0 -6.75 0.0 0
M  V30 26 C 1.299 -4.5 0.0 0
M  V30 27 C 1.299 -7.5 0.0 0
M  V30 28 C 2.598 -5.25 0.0 0
M  V30 29 C 2.598 -6.75 0.0 0
M  V30 30 C 1.299 -9.0 0.0 0
M  V30 31 O 3.8971 -7.5 0.0 0
M  V30 32 C 5.1961 -6.75 0.0 0
M  V30 33 C 6.4951 -7.5 0.0 0
M  V30 34 C 5.9461 -5.451 0.0 0
M  V30 35 C 4.4461 -5.451 0.0 0
M  V30 36 O 6.4951 -9.0 0.0 0
M  V30 37 O 7.7942 -6.75 0.0 0
M  V30 END ATOM
M  V30 BEGIN BOND
M  V30 1 1 1 2
M  V30 2 2 2 3
M  V30 3 1 2 4
M  V30 4 1 3 5
M  V30 5 1 3 6
M  V30 6 2 4 7
M  V30 7 2 5 8
M  V30 8 1 5 9
M  V30 9 2 6 10
M  V30 10 1 7 11
M  V30 11 1 9 12
M  V30 12 1 11 13
M  V30 13 1 11 14
M  V30 14 1 11 15
M  V30 15 1 12 16
M  V30 16 2 16 17
M  V30 17 1 16 18
M  V30 18 1 17 19
M  V30 19 1 17 20
M  V30 20 2 18 21
M  V30 21 2 19 22
M  V30 22 1 21 23
M  V30 23 1 23 24
M  V30 24 2 24 25
M  V30 25 1 24 26
M  V30 26 1 25 27
M  V30 27 2 26 28
M  V30 28 2 27 29
M  V30 29 1 27 30
M  V30 30 1 29 31
M  V30 31 1 31 32
M  V30 32 1 32 33
M  V30 33 1 32 34
M  V30 34 1 32 35
M  V30 35 2 33 36
M  V30 36 1 33 37
M  V30 37 1 7 10
M  V30 38 1 21 22
M  V30 39 1 28 29
M  V30 END BOND
M  V30 END CTAB
M  END
>  <Molecule ChEMBL ID>
CHEMBL237519

>  <Smiles>
Cc1ccc(Oc2ccc(OC(C)(C)C(=O)O)c(C)c2)cc1CNC(=O)c1ccc(C(F)(F)F)cc1F

>  <IC50_nM>
16.98

>  <Assay Description>
Agonist activity at PPARgamma

$$$$
CHEMBL237519
Actelion Java MolfileCreator 2.0

  0  0  0  0  0  0              0 V3000
M  V30 BEGIN CTAB
M  V30 COUNTS 37 39 0 0 0
M  V30 BEGIN ATOM
M  V30 1 F 6.4951 1.5 0.0 0
M  V30 2 C 6.4951 0.0 0.0 0
M  V30 3 C 5.1961 -0.75 0.0 0
M  V30 4 C 7.7942 -0.75 0.0 0
M  V30 5 C 3.8971 0.0 0.0 0
M  V30 6 C 5.1961 -2.25 0.0 0
M  V30 7 C 7.7942 -2.25 0.0 0
M  V30 8 O 3.8971 1.5 0.0 0
M  V30 9 N 2.598 -0.75 0.0 0
M  V30 10 C 6.4951 -3.0 0.0 0
M  V30 11 C 9.0932 -3.0 0.0 0
M  V30 12 C 1.299 0.0 0.0 0
M  V30 13 F 9.8432 -1.7009 0.0 0
M  V30 14 F 10.3923 -3.75 0.0 0
M  V30 15 F 8.3432 -4.299 0.0 0
M  V30 16 C 0.0 -0.75 0.0 0
M  V30 17 C -1.299 0.0 0.0 0
M  V30 18 C 0.0 -2.25 0.0 0
M  V30 19 C -2.598 -0.75 0.0 0
M  V30 20 C -1.299 1.5 0.0 0
M  V30 21 C -1.299 -3.0 0.0 0
M  V30 22 C -2.598 -2.25 0.0 0
M  V30 23 O -1.299 -4.5 0.0 0
M  V30 24 C 0.0 -5.25 0.0 0
M  V30 25 C 0.0 -6.75 0.0 0
M  V30 26 C 1.299 -4.5 0.0 0
M  V30 27 C 1.299 -7.5 0.0 0
M  V30 28 C 2.598 -5.25 0.0 0
M  V30 29 C 2.598 -6.75 0.0 0
M  V30 30 C 1.299 -9.0 0.0 0
M  V30 31 O 3.8971 -7.5 0.0 0
M  V30 32 C 5.1961 -6.75 0.0 0
M  V30 33 C 6.4951 -7.5 0.0 0
M  V30 34 C 5.9461 -5.451 0.0 0
M  V30 35 C 4.4461 -5.451 0.0 0
M  V30 36 O 6.4951 -9.0 0.0 0
M  V30 37 O 7.7942 -6.75 0.0 0
M  V30 END ATOM
M  V30 BEGIN BOND
M  V30 1 1 1 2
M  V30 2 2 2 3
M  V30 3 1 2 4
M  V30 4 1 3 5
M  V30 5 1 3 6
M  V30 6 2 4 7
M  V30 7 2 5 8
M  V30 8 1 5 9
M  V30 9 2 6 10
M  V30 10 1 7 11
M  V30 11 1 9 12
M  V30 12 1 11 13
M  V30 13 1 11 14
M  V30 14 1 11 15
M  V30 15 1 12 16
M  V30 16 2 16 17
M  V30 17 1 16 18
M  V30 18 1 17 19
M  V30 19 1 17 20
M  V30 20 2 18 21
M  V30 21 2 19 22
M  V30 22 1 21 23
M  V30 23 1 23 24
M  V30 24 2 24 25
M  V30 25 1 24 26
M  V30 26 1 25 27
M  V30 27 2 26 28
M  V30 28 2 27 29
M  V30 29 1 27 30
M  V30 30 1 29 31
M  V30 31 1 31 32
M  V30 32 1 32 33
M  V30 33 1 32 34
M  V30 34 1 32 35
M  V30 35 2 33 36
M  V30 36 1 33 37
M  V30 37 1 7 10
M  V30 38 1 21 22
M  V30 39 1 28 29
M  V30 END BOND
M  V30 END CTAB
M  END
>  <Molecule ChEMBL ID>
CHEMBL237519

>  <Smiles>
Cc1ccc(Oc2ccc(OC(C)(C)C(=O)O)c(C)c2)cc1CNC(=O)c1ccc(C(F)(F)F)cc1F

>  <IC50_nM>
17

>  <Assay Description>
Agonist activity at PPARgamma

$$$$
CHEMBL564902
Actelion Java MolfileCreator 2.0

  0  0  0  0  0  0              0 V3000
M  V30 BEGIN CTAB
M  V30 COUNTS 39 42 0 0 0
M  V30 BEGIN ATOM
M  V30 1 Cl 6.0664 -5.852 0.0 0
M  V30 2 C 6.6542 -5.043 0.0 0
M  V30 3 C 7.6487 -5.1475 0.0 0
M  V30 4 C 6.2475 -4.1294 0.0 0
M  V30 5 C 8.2365 -4.3385 0.0 0
M  V30 6 C 6.8353 -3.3204 0.0 0
M  V30 7 C 7.8298 -3.4249 0.0 0
M  V30 8 C 8.4176 -2.6159 0.0 0
M  V30 9 O 9.4121 -2.7205 0.0 0
M  V30 10 C 8.0108 -1.7024 0.0 0
M  V30 11 C 8.5108 -0.8364 0.0 0
M  V30 12 C 7.0327 -1.4945 0.0 0
M  V30 13 C 7.8417 -0.0932 0.0 0
M  V30 14 C 9.489 -0.6284 0.0 0
M  V30 15 N 6.9282 -0.5 0.0 0
M  V30 16 C 6.2895 -2.1636 0.0 0
M  V30 17 C 8.1507 0.8577 0.0 0
M  V30 18 C 9.798 0.3225 0.0 0
M  V30 19 C 6.0621 0.0 0.0 0
M  V30 20 C 9.1289 1.0657 0.0 0
M  V30 21 C 5.1961 -0.5 0.0 0
M  V30 22 O 9.4379 2.0167 0.0 0
M  V30 23 C 4.3301 0.0 0.0 0
M  V30 24 C 5.1961 -1.4999 0.0 0
M  V30 25 C 8.7687 2.7599 0.0 0
M  V30 26 C 3.4641 -0.5 0.0 0
M  V30 27 C 4.3301 -1.9999 0.0 0
M  V30 28 F 8.0256 2.0907 0.0 0
M  V30 29 F 8.0996 3.503 0.0 0
M  V30 30 F 9.5119 3.429 0.0 0
M  V30 31 O 2.598 0.0 0.0 0
M  V30 32 C 3.4641 -1.4999 0.0 0
M  V30 33 C 1.732 -0.5 0.0 0 CFG=2
M  V30 34 C 1.732 -1.5 0.0 0
M  V30 35 C 0.866 0.0 0.0 0
M  V30 36 O 0.866 -2.0 0.0 0
M  V30 37 O 2.598 -1.9999 0.0 0
M  V30 38 C 0.866 1.0 0.0 0
M  V30 39 C 0.0 -0.5 0.0 0
M  V30 END ATOM
M  V30 BEGIN BOND
M  V30 1 1 1 2
M  V30 2 2 2 3
M  V30 3 1 2 4
M  V30 4 1 3 5
M  V30 5 2 4 6
M  V30 6 2 5 7
M  V30 7 1 7 8
M  V30 8 2 8 9
M  V30 9 1 8 10
M  V30 10 1 10 11
M  V30 11 2 10 12
M  V30 12 2 11 13
M  V30 13 1 11 14
M  V30 14 1 12 15
M  V30 15 1 12 16
M  V30 16 1 13 17
M  V30 17 2 14 18
M  V30 18 1 15 19
M  V30 19 2 17 20
M  V30 20 1 19 21
M  V30 21 1 20 22
M  V30 22 2 21 23
M  V30 23 1 21 24
M  V30 24 1 22 25
M  V30 25 1 23 26
M  V30 26 2 24 27
M  V30 27 1 25 28
M  V30 28 1 25 29
M  V30 29 1 25 30
M  V30 30 1 26 31
M  V30 31 2 26 32
M  V30 32 1 33 31 CFG=3
M  V30 33 1 33 34
M  V30 34 1 33 35
M  V30 35 2 34 36
M  V30 36 1 34 37
M  V30 37 1 35 38
M  V30 38 1 35 39
M  V30 39 1 6 7
M  V30 40 1 13 15
M  V30 41 1 18 20
M  V30 42 1 27 32
M  V30 END BOND
M  V30 BEGIN COLLECTION
M  V30 MDLV30/STEABS ATOMS=(1 33)
M  V30 END COLLECTION
M  V30 END CTAB
M  END
>  <Molecule ChEMBL ID>
CHEMBL564902

>  <Smiles>
Cc1c(C(=O)c2ccc(Cl)cc2)c2ccc(OC(F)(F)F)cc2n1Cc1cccc(O[C@H](C(=O)O)C(C)C)c1

>  <IC50_nM>
17

>  <Assay Description>
Inhibition of human PPARgamma receptor by scintillation proximity assay

$$$$
CHEMBL223350
Actelion Java MolfileCreator 2.0

  0  0  0  0  0  0              0 V3000
M  V30 BEGIN CTAB
M  V30 COUNTS 37 40 0 0 0
M  V30 BEGIN ATOM
M  V30 1 O 2.598 1.0 0.0 0
M  V30 2 C 2.598 0.0 0.0 0
M  V30 3 O 3.4641 -0.5 0.0 0
M  V30 4 N 1.732 -0.5 0.0 0
M  V30 5 C 4.3301 0.0 0.0 0
M  V30 6 C 0.866 0.0 0.0 0
M  V30 7 N 5.1961 -0.4999 0.0 0
M  V30 8 C 4.3301 0.9999 0.0 0
M  V30 9 C 0.0 -0.5 0.0 0
M  V30 10 C 6.0621 0.0 0.0 0
M  V30 11 N 5.1961 1.4999 0.0 0
M  V30 12 C -0.866 0.0 0.0 0
M  V30 13 C 0.0 -1.4999 0.0 0
M  V30 14 C 6.0621 1.0 0.0 0
M  V30 15 C -1.732 -0.4999 0.0 0
M  V30 16 C -0.866 1.0 0.0 0
M  V30 17 C -0.866 -1.9999 0.0 0
M  V30 18 C -1.732 -1.4999 0.0 0
M  V30 19 C -1.732 1.5 0.0 0
M  V30 20 O -0.866 -2.9999 0.0 0
M  V30 21 C -1.732 2.5 0.0 0
M  V30 22 C 0.0 -3.4999 0.0 0
M  V30 23 O -0.866 3.0 0.0 0
M  V30 24 O -2.598 3.0 0.0 0
M  V30 25 C 0.0 -4.4999 0.0 0
M  V30 26 C 0.866 -5.0 0.0 0
M  V30 27 N 0.9705 -5.9945 0.0 0
M  V30 28 C 1.7795 -4.5932 0.0 0
M  V30 29 C 1.9487 -6.2024 0.0 0
M  V30 30 O 2.4487 -5.3364 0.0 0
M  V30 31 C 1.9874 -3.6151 0.0 0
M  V30 32 C 2.3554 -7.1159 0.0 0
M  V30 33 C 1.7676 -7.9249 0.0 0
M  V30 34 C 3.3499 -7.2205 0.0 0
M  V30 35 C 2.1743 -8.8385 0.0 0
M  V30 36 C 3.7566 -8.134 0.0 0
M  V30 37 C 3.1689 -8.943 0.0 0
M  V30 END ATOM
M  V30 BEGIN BOND
M  V30 1 2 1 2
M  V30 2 1 2 3
M  V30 3 1 2 4
M  V30 4 1 3 5
M  V30 5 1 4 6
M  V30 6 2 5 7
M  V30 7 1 5 8
M  V30 8 1 6 9
M  V30 9 1 7 10
M  V30 10 2 8 11
M  V30 11 2 9 12
M  V30 12 1 9 13
M  V30 13 2 10 14
M  V30 14 1 12 15
M  V30 15 1 12 16
M  V30 16 2 13 17
M  V30 17 2 15 18
M  V30 18 1 16 19
M  V30 19 1 17 20
M  V30 20 1 19 21
M  V30 21 1 20 22
M  V30 22 2 21 23
M  V30 23 1 21 24
M  V30 24 1 22 25
M  V30 25 1 25 26
M  V30 26 1 26 27
M  V30 27 2 26 28
M  V30 28 2 27 29
M  V30 29 1 28 30
M  V30 30 1 28 31
M  V30 31 1 29 32
M  V30 32 2 32 33
M  V30 33 1 32 34
M  V30 34 1 33 35
M  V30 35 2 34 36
M  V30 36 2 35 37
M  V30 37 1 11 14
M  V30 38 1 17 18
M  V30 39 1 29 30
M  V30 40 1 36 37
M  V30 END BOND
M  V30 END CTAB
M  END
>  <Molecule ChEMBL ID>
CHEMBL223350

>  <Smiles>
Cc1oc(-c2ccccc2)nc1CCOc1ccc(CCC(=O)O)c(CNC(=O)Oc2cnccn2)c1

>  <IC50_nM>
17

>  <Assay Description>
Displacement of [3H]2-methyl-2-(4-{3-propyl-(5-pyridin-2yl-thiophene-2-sulfonyl)-amino]-pro-pyl}-phenoxy)-propionic acid from human PPARgamma

$$$$
CHEMBL3736075
Actelion Java MolfileCreator 2.0

  0  0  0  0  0  0              0 V3000
M  V30 BEGIN CTAB
M  V30 COUNTS 42 46 0 0 0
M  V30 BEGIN ATOM
M  V30 1 O 11.8592 -3.5669 0.0 0
M  V30 2 C 10.8811 -3.7748 0.0 0
M  V30 3 O 10.212 -3.0316 0.0 0
M  V30 4 C 10.5721 -4.7258 0.0 0
M  V30 5 C 9.5939 -4.9337 0.0 0
M  V30 6 C 11.2412 -5.469 0.0 0
M  V30 7 C 8.9248 -4.1906 0.0 0
M  V30 8 C 9.2849 -5.8848 0.0 0
M  V30 9 C 10.9322 -6.42 0.0 0
M  V30 10 C 9.2338 -3.2395 0.0 0
M  V30 11 C 7.9466 -4.3985 0.0 0
M  V30 12 C 9.954 -6.6279 0.0 0
M  V30 13 C 8.5647 -2.4964 0.0 0
M  V30 14 C 7.2775 -3.6554 0.0 0
M  V30 15 C 7.5865 -2.7043 0.0 0
M  V30 16 C 6.9174 -1.9612 0.0 0
M  V30 17 N 5.9392 -2.1691 0.0 0
M  V30 18 C 5.1961 -1.4999 0.0 0
M  V30 19 C 5.5325 -3.0826 0.0 0
M  V30 20 C 4.3301 -1.9999 0.0 0
M  V30 21 C 5.1961 -0.4999 0.0 0
M  V30 22 C 4.538 -2.9781 0.0 0
M  V30 23 C 6.0325 -3.9487 0.0 0
M  V30 24 C 3.4641 -1.5 0.0 0
M  V30 25 C 4.3301 0.0 0.0 0
M  V30 26 C 3.8689 -3.7212 0.0 0
M  V30 27 C 3.4641 -0.5 0.0 0
M  V30 28 C 2.598 0.0 0.0 0
M  V30 29 O 2.598 1.0 0.0 0
M  V30 30 N 1.732 -0.5 0.0 0
M  V30 31 C 0.866 0.0 0.0 0 CFG=2
M  V30 32 C 0.866 1.0 0.0 0
M  V30 33 C 0.0 -0.5 0.0 0
M  V30 34 C 1.732 1.4999 0.0 0
M  V30 35 C 0.0 1.4999 0.0 0
M  V30 36 C 1.732 2.5 0.0 0
M  V30 37 C 0.0 2.5 0.0 0
M  V30 38 C 0.866 3.0 0.0 0
M  V30 39 C 2.598 3.0 0.0 0
M  V30 40 O 2.098 3.866 0.0 0
M  V30 41 C 3.4641 3.5 0.0 0
M  V30 42 C 3.098 2.1339 0.0 0
M  V30 END ATOM
M  V30 BEGIN BOND
M  V30 1 2 1 2
M  V30 2 1 2 3
M  V30 3 1 2 4
M  V30 4 2 4 5
M  V30 5 1 4 6
M  V30 6 1 5 7
M  V30 7 1 5 8
M  V30 8 2 6 9
M  V30 9 2 7 10
M  V30 10 1 7 11
M  V30 11 2 8 12
M  V30 12 1 10 13
M  V30 13 2 11 14
M  V30 14 2 13 15
M  V30 15 1 15 16
M  V30 16 1 16 17
M  V30 17 1 17 18
M  V30 18 1 17 19
M  V30 19 2 18 20
M  V30 20 1 18 21
M  V30 21 2 19 22
M  V30 22 1 19 23
M  V30 23 1 20 24
M  V30 24 2 21 25
M  V30 25 1 22 26
M  V30 26 2 24 27
M  V30 27 1 27 28
M  V30 28 2 28 29
M  V30 29 1 28 30
M  V30 30 1 30 31
M  V30 31 1 31 32
M  V30 32 1 31 33 CFG=1
M  V30 33 2 32 34
M  V30 34 1 32 35
M  V30 35 1 34 36
M  V30 36 2 35 37
M  V30 37 2 36 38
M  V30 38 1 36 39
M  V30 39 1 39 40
M  V30 40 1 39 41
M  V30 41 1 39 42
M  V30 42 1 9 12
M  V30 43 1 14 15
M  V30 44 1 20 22
M  V30 45 1 25 27
M  V30 46 1 37 38
M  V30 END BOND
M  V30 BEGIN COLLECTION
M  V30 MDLV30/STEABS ATOMS=(1 31)
M  V30 END COLLECTION
M  V30 END CTAB
M  END
>  <Molecule ChEMBL ID>
CHEMBL3736075

>  <Smiles>
Cc1c(C)n(Cc2ccc(-c3ccccc3C(=O)O)cc2)c2ccc(C(=O)N[C@@H](C)c3cccc(C(C)(C)O)c3)cc12

>  <IC50_nM>
17

>  <Assay Description>
Binding affinity to GST-tagged PPAR-gamma-LBD (unknown origin) after 2 hrs by Lantha screen assay using fluormone Pan-PPAR green probe

$$$$
CHEMBL484000
Actelion Java MolfileCreator 2.0

  0  0  0  0  0  0              0 V3000
M  V30 BEGIN CTAB
M  V30 COUNTS 36 39 0 0 0
M  V30 BEGIN ATOM
M  V30 1 S 3.5869 1.6691 0.0 0
M  V30 2 C 4.3301 1.0 0.0 0
M  V30 3 C 3.9937 2.5826 0.0 0
M  V30 4 C 4.3301 0.0 0.0 0
M  V30 5 C 5.1961 1.4999 0.0 0
M  V30 6 C 4.9882 2.4781 0.0 0
M  V30 7 C 5.1961 -0.4999 0.0 0
M  V30 8 C 3.4641 -0.5 0.0 0
M  V30 9 C 6.0621 0.9999 0.0 0
M  V30 10 C 6.0621 0.0 0.0 0
M  V30 11 C 3.4641 -1.5 0.0 0 CFG=2
M  V30 12 O 6.9282 1.4999 0.0 0
M  V30 13 O 2.598 -1.9999 0.0 0
M  V30 14 C 4.3301 -2.0 0.0 0
M  V30 15 C 6.9282 2.5 0.0 0
M  V30 16 C 2.598 -2.9999 0.0 0
M  V30 17 O 5.1961 -1.4999 0.0 0
M  V30 18 O 4.3301 -2.9999 0.0 0
M  V30 19 C 7.7942 3.0 0.0 0
M  V30 20 C 1.732 -3.5 0.0 0
M  V30 21 C 7.7942 4.0 0.0 0
M  V30 22 N 8.6032 4.5877 0.0 0
M  V30 23 C 6.9852 4.5877 0.0 0
M  V30 24 C 8.2942 5.5388 0.0 0
M  V30 25 O 7.2942 5.5388 0.0 0
M  V30 26 C 6.0341 4.2787 0.0 0
M  V30 27 C 8.882 6.3478 0.0 0
M  V30 28 C 9.8765 6.2433 0.0 0
M  V30 29 C 8.4752 7.2614 0.0 0
M  V30 30 C 10.4643 7.0523 0.0 0
M  V30 31 C 9.063 8.0704 0.0 0
M  V30 32 C 10.0575 7.9658 0.0 0
M  V30 33 C 10.6453 8.7749 0.0 0
M  V30 34 F 9.8363 9.3626 0.0 0
M  V30 35 F 11.2331 9.5839 0.0 0
M  V30 36 F 11.4543 8.1871 0.0 0
M  V30 END ATOM
M  V30 BEGIN BOND
M  V30 1 1 1 2
M  V30 2 1 1 3
M  V30 3 2 2 4
M  V30 4 1 2 5
M  V30 5 2 3 6
M  V30 6 1 4 7
M  V30 7 1 4 8
M  V30 8 2 5 9
M  V30 9 2 7 10
M  V30 10 1 8 11
M  V30 11 1 9 12
M  V30 12 1 11 13 CFG=1
M  V30 13 1 11 14
M  V30 14 1 12 15
M  V30 15 1 13 16
M  V30 16 2 14 17
M  V30 17 1 14 18
M  V30 18 1 15 19
M  V30 19 1 16 20
M  V30 20 1 19 21
M  V30 21 1 21 22
M  V30 22 2 21 23
M  V30 23 2 22 24
M  V30 24 1 23 25
M  V30 25 1 23 26
M  V30 26 1 24 27
M  V30 27 2 27 28
M  V30 28 1 27 29
M  V30 29 1 28 30
M  V30 30 2 29 31
M  V30 31 2 30 32
M  V30 32 1 32 33
M  V30 33 1 33 34
M  V30 34 1 33 35
M  V30 35 1 33 36
M  V30 36 1 5 6
M  V30 37 1 9 10
M  V30 38 1 24 25
M  V30 39 1 31 32
M  V30 END BOND
M  V30 BEGIN COLLECTION
M  V30 MDLV30/STEABS ATOMS=(1 11)
M  V30 END COLLECTION
M  V30 END CTAB
M  END
>  <Molecule ChEMBL ID>
CHEMBL484000

>  <Smiles>
CCO[C@@H](Cc1ccc(OCCc2nc(-c3ccc(C(F)(F)F)cc3)oc2C)c2ccsc12)C(=O)O

>  <IC50_nM>
17

>  <Assay Description>
Displacement of radio labeled 2(S)-(2-benzoyl-phenylamino)-3-{4-[1,1-ditritio-2-(5-methyl-2-phenyl-oxazol-4-yl)-ethoxy]-phenyl}-propionic acid from GST-fused human PPARgamma expressed in Escherichia coli BL21 cells by scintillation proximity assay

$$$$
CHEMBL3695824
Actelion Java MolfileCreator 2.0

  0  0  0  0  0  0              0 V3000
M  V30 BEGIN CTAB
M  V30 COUNTS 41 46 0 0 0
M  V30 BEGIN ATOM
M  V30 1 O 11.8592 -3.5669 0.0 0
M  V30 2 C 10.8811 -3.7748 0.0 0
M  V30 3 O 10.212 -3.0316 0.0 0
M  V30 4 C 10.5721 -4.7258 0.0 0
M  V30 5 C 9.5939 -4.9337 0.0 0
M  V30 6 C 11.2412 -5.469 0.0 0
M  V30 7 C 8.9248 -4.1906 0.0 0
M  V30 8 C 9.2849 -5.8848 0.0 0
M  V30 9 C 10.9322 -6.42 0.0 0
M  V30 10 C 9.2338 -3.2395 0.0 0
M  V30 11 C 7.9466 -4.3985 0.0 0
M  V30 12 C 9.954 -6.6279 0.0 0
M  V30 13 C 8.5647 -2.4964 0.0 0
M  V30 14 C 7.2775 -3.6554 0.0 0
M  V30 15 C 7.5865 -2.7043 0.0 0
M  V30 16 C 6.9174 -1.9612 0.0 0
M  V30 17 N 5.9392 -2.1691 0.0 0
M  V30 18 C 5.1961 -1.4999 0.0 0
M  V30 19 C 5.5325 -3.0826 0.0 0
M  V30 20 C 4.3301 -1.9999 0.0 0
M  V30 21 C 5.1961 -0.4999 0.0 0
M  V30 22 C 4.538 -2.9781 0.0 0
M  V30 23 C 6.0325 -3.9487 0.0 0
M  V30 24 C 3.4641 -1.5 0.0 0
M  V30 25 C 4.3301 0.0 0.0 0
M  V30 26 C 3.8689 -3.7212 0.0 0
M  V30 27 C 3.4641 -0.5 0.0 0
M  V30 28 C 2.598 0.0 0.0 0
M  V30 29 O 2.598 1.0 0.0 0
M  V30 30 N 1.732 -0.5 0.0 0
M  V30 31 C 0.866 0.0 0.0 0
M  V30 32 C 0.0 -0.5 0.0 0 CFG=2
M  V30 33 C -0.866 0.0 0.0 0
M  V30 34 C 0.0 -1.4999 0.0 0
M  V30 35 O -1.732 -0.4999 0.0 0
M  V30 36 C -0.866 -1.9999 0.0 0
M  V30 37 C -1.732 -1.4999 0.0 0
M  V30 38 C -0.866 -2.9999 0.0 0
M  V30 39 C -2.598 -1.9999 0.0 0
M  V30 40 C -1.732 -3.4999 0.0 0
M  V30 41 C -2.598 -2.9999 0.0 0
M  V30 END ATOM
M  V30 BEGIN BOND
M  V30 1 2 1 2
M  V30 2 1 2 3
M  V30 3 1 2 4
M  V30 4 2 4 5
M  V30 5 1 4 6
M  V30 6 1 5 7
M  V30 7 1 5 8
M  V30 8 2 6 9
M  V30 9 2 7 10
M  V30 10 1 7 11
M  V30 11 2 8 12
M  V30 12 1 10 13
M  V30 13 2 11 14
M  V30 14 2 13 15
M  V30 15 1 15 16
M  V30 16 1 16 17
M  V30 17 1 17 18
M  V30 18 1 17 19
M  V30 19 2 18 20
M  V30 20 1 18 21
M  V30 21 2 19 22
M  V30 22 1 19 23
M  V30 23 1 20 24
M  V30 24 2 21 25
M  V30 25 1 22 26
M  V30 26 2 24 27
M  V30 27 1 27 28
M  V30 28 2 28 29
M  V30 29 1 28 30
M  V30 30 1 30 31
M  V30 31 1 32 31 CFG=1
M  V30 32 1 32 33
M  V30 33 1 32 34
M  V30 34 1 33 35
M  V30 35 1 34 36
M  V30 36 1 35 37
M  V30 37 1 36 38
M  V30 38 1 37 39
M  V30 39 2 38 40
M  V30 40 2 39 41
M  V30 41 1 9 12
M  V30 42 1 14 15
M  V30 43 1 20 22
M  V30 44 1 25 27
M  V30 45 2 36 37
M  V30 46 1 40 41
M  V30 END BOND
M  V30 BEGIN COLLECTION
M  V30 MDLV30/STERAC1 ATOMS=(1 32)
M  V30 END COLLECTION
M  V30 END CTAB
M  END
>  <Molecule ChEMBL ID>
CHEMBL3695824

>  <Smiles>
Cc1c(C)n(Cc2ccc(-c3ccccc3C(=O)O)cc2)c2ccc(C(=O)NCC3COc4ccccc4C3)cc12

>  <IC50_nM>
17

>  <Assay Description>
Lanthascreen Competitive Binding Assay: The assay was performed according to manufacturer protocol. A mixture of nM GST-PPARG-LBD, 5 nM Tb-GST-antibody, 5 nM Fluormone Pan-PPAR Green, and serial dilutions of the experimental compound, beginning at 10 ׬M downwards, was added to wells of black 384-well low-volume plates (Greiner) to a total volume of 18 ׬L. All dilutions were made in TR-FRET assay buffer C. DMSO at 2% final concentration was used as a no-ligand control. Experiment was performed in triplicate, and incubated for 2 hours in the dark prior to assay read in Perkin Elmer ViewLux ultra HTS microplate reader. FRET signal was measured by excitation at 340 nm and emission at 520 nm for fluorescein and 490 nm for terbium. Fold change over DMSO was calculated using GraphPad Prism Software (La Jolla, Calif.) by calculating 520 nm/490 nm ratio. Graphs were plotted as fold change of FRET signal for compound treatment over DMSO-only control.

$$$$
CHEMBL3695828
Actelion Java MolfileCreator 2.0

  0  0  0  0  0  0              0 V3000
M  V30 BEGIN CTAB
M  V30 COUNTS 34 37 0 0 0
M  V30 BEGIN ATOM
M  V30 1 O 13.5913 -3.5669 0.0 0
M  V30 2 C 12.6131 -3.7748 0.0 0
M  V30 3 O 11.944 -3.0316 0.0 0
M  V30 4 C 12.3041 -4.7258 0.0 0
M  V30 5 C 11.326 -4.9337 0.0 0
M  V30 6 C 12.9732 -5.469 0.0 0
M  V30 7 C 10.6568 -4.1906 0.0 0
M  V30 8 C 11.017 -5.8848 0.0 0
M  V30 9 C 12.6642 -6.42 0.0 0
M  V30 10 C 10.9659 -3.2395 0.0 0
M  V30 11 C 9.6787 -4.3985 0.0 0
M  V30 12 C 11.6861 -6.6279 0.0 0
M  V30 13 C 10.2967 -2.4964 0.0 0
M  V30 14 C 9.0096 -3.6554 0.0 0
M  V30 15 C 9.3186 -2.7043 0.0 0
M  V30 16 C 8.6494 -1.9612 0.0 0
M  V30 17 N 7.6713 -2.1691 0.0 0
M  V30 18 C 6.9282 -1.4999 0.0 0
M  V30 19 C 7.2646 -3.0826 0.0 0
M  V30 20 C 6.0621 -2.0 0.0 0
M  V30 21 C 6.9282 -0.5 0.0 0
M  V30 22 C 6.27 -2.9781 0.0 0
M  V30 23 C 7.7646 -3.9487 0.0 0
M  V30 24 C 5.1961 -1.5 0.0 0
M  V30 25 C 6.0621 0.0 0.0 0
M  V30 26 C 5.6009 -3.7212 0.0 0
M  V30 27 C 5.1961 -0.5 0.0 0
M  V30 28 C 4.3301 0.0 0.0 0
M  V30 29 O 4.3301 1.0 0.0 0
M  V30 30 N 3.4641 -0.5 0.0 0
M  V30 31 C 2.598 0.0 0.0 0
M  V30 32 C 1.732 -0.5 0.0 0
M  V30 33 O 0.866 0.0 0.0 0
M  V30 34 C 0.0 -0.5 0.0 0
M  V30 END ATOM
M  V30 BEGIN BOND
M  V30 1 2 1 2
M  V30 2 1 2 3
M  V30 3 1 2 4
M  V30 4 2 4 5
M  V30 5 1 4 6
M  V30 6 1 5 7
M  V30 7 1 5 8
M  V30 8 2 6 9
M  V30 9 2 7 10
M  V30 10 1 7 11
M  V30 11 2 8 12
M  V30 12 1 10 13
M  V30 13 2 11 14
M  V30 14 2 13 15
M  V30 15 1 15 16
M  V30 16 1 16 17
M  V30 17 1 17 18
M  V30 18 1 17 19
M  V30 19 2 18 20
M  V30 20 1 18 21
M  V30 21 2 19 22
M  V30 22 1 19 23
M  V30 23 1 20 24
M  V30 24 2 21 25
M  V30 25 1 22 26
M  V30 26 2 24 27
M  V30 27 1 27 28
M  V30 28 2 28 29
M  V30 29 1 28 30
M  V30 30 1 30 31
M  V30 31 1 31 32
M  V30 32 1 32 33
M  V30 33 1 33 34
M  V30 34 1 9 12
M  V30 35 1 14 15
M  V30 36 1 20 22
M  V30 37 1 25 27
M  V30 END BOND
M  V30 END CTAB
M  END
>  <Molecule ChEMBL ID>
CHEMBL3695828

>  <Smiles>
COCCNC(=O)c1ccc2c(c1)c(C)c(C)n2Cc1ccc(-c2ccccc2C(=O)O)cc1

>  <IC50_nM>
17

>  <Assay Description>
Lanthascreen Competitive Binding Assay: The assay was performed according to manufacturer protocol. A mixture of nM GST-PPARG-LBD, 5 nM Tb-GST-antibody, 5 nM Fluormone Pan-PPAR Green, and serial dilutions of the experimental compound, beginning at 10 ׬M downwards, was added to wells of black 384-well low-volume plates (Greiner) to a total volume of 18 ׬L. All dilutions were made in TR-FRET assay buffer C. DMSO at 2% final concentration was used as a no-ligand control. Experiment was performed in triplicate, and incubated for 2 hours in the dark prior to assay read in Perkin Elmer ViewLux ultra HTS microplate reader. FRET signal was measured by excitation at 340 nm and emission at 520 nm for fluorescein and 490 nm for terbium. Fold change over DMSO was calculated using GraphPad Prism Software (La Jolla, Calif.) by calculating 520 nm/490 nm ratio. Graphs were plotted as fold change of FRET signal for compound treatment over DMSO-only control.

$$$$
CHEMBL3699382
Actelion Java MolfileCreator 2.0

  0  0  0  0  0  0              0 V3000
M  V30 BEGIN CTAB
M  V30 COUNTS 38 42 0 0 0
M  V30 BEGIN ATOM
M  V30 1 F 2.598 -1.9999 0.0 0
M  V30 2 C 3.4641 -1.4999 0.0 0
M  V30 3 C 4.3301 -1.9999 0.0 0
M  V30 4 C 3.4641 -0.5 0.0 0
M  V30 5 F 4.3301 -2.9999 0.0 0
M  V30 6 C 5.1961 -1.4999 0.0 0
M  V30 7 C 4.3301 0.0 0.0 0
M  V30 8 C 2.598 0.0 0.0 0 CFG=1
M  V30 9 C 5.1961 -0.4999 0.0 0
M  V30 10 F 4.3301 1.0 0.0 0
M  V30 11 N 1.732 -0.5 0.0 0
M  V30 12 C 2.598 1.0 0.0 0
M  V30 13 C 0.866 0.0 0.0 0
M  V30 14 O 0.866 1.0 0.0 0
M  V30 15 C 0.0 -0.5 0.0 0
M  V30 16 C 0.0 -1.4999 0.0 0
M  V30 17 C -0.866 0.0 0.0 0
M  V30 18 C -0.866 -1.9999 0.0 0
M  V30 19 C -1.732 -0.4999 0.0 0
M  V30 20 C -1.732 -1.4999 0.0 0
M  V30 21 C -1.0739 -2.9781 0.0 0
M  V30 22 N -2.4751 -2.1691 0.0 0
M  V30 23 C -2.0684 -3.0826 0.0 0
M  V30 24 C -0.4048 -3.7212 0.0 0
M  V30 25 C -3.4533 -1.9612 0.0 0
M  V30 26 C -2.5684 -3.9487 0.0 0
M  V30 27 C -4.1224 -2.7043 0.0 0
M  V30 28 C -5.1006 -2.4964 0.0 0
M  V30 29 C -3.8134 -3.6554 0.0 0
M  V30 30 C -5.7697 -3.2395 0.0 0
M  V30 31 C -4.4825 -4.3985 0.0 0
M  V30 32 C -5.4607 -4.1906 0.0 0
M  V30 33 C -6.1298 -4.9337 0.0 0
M  V30 34 C -7.108 -4.7258 0.0 0
M  V30 35 C -5.8208 -5.8848 0.0 0
M  V30 36 C -7.7771 -5.469 0.0 0
M  V30 37 C -6.4899 -6.6279 0.0 0
M  V30 38 C -7.4681 -6.42 0.0 0
M  V30 END ATOM
M  V30 BEGIN BOND
M  V30 1 1 1 2
M  V30 2 2 2 3
M  V30 3 1 2 4
M  V30 4 1 3 5
M  V30 5 1 3 6
M  V30 6 2 4 7
M  V30 7 1 4 8
M  V30 8 2 6 9
M  V30 9 1 7 10
M  V30 10 1 8 11
M  V30 11 1 8 12 CFG=1
M  V30 12 1 11 13
M  V30 13 2 13 14
M  V30 14 1 13 15
M  V30 15 2 15 16
M  V30 16 1 15 17
M  V30 17 1 16 18
M  V30 18 2 17 19
M  V30 19 2 18 20
M  V30 20 1 18 21
M  V30 21 1 20 22
M  V30 22 2 21 23
M  V30 23 1 21 24
M  V30 24 1 22 25
M  V30 25 1 23 26
M  V30 26 1 25 27
M  V30 27 2 27 28
M  V30 28 1 27 29
M  V30 29 1 28 30
M  V30 30 2 29 31
M  V30 31 2 30 32
M  V30 32 1 32 33
M  V30 33 2 33 34
M  V30 34 1 33 35
M  V30 35 1 34 36
M  V30 36 2 35 37
M  V30 37 2 36 38
M  V30 38 1 7 9
M  V30 39 1 19 20
M  V30 40 1 22 23
M  V30 41 1 31 32
M  V30 42 1 37 38
M  V30 END BOND
M  V30 BEGIN COLLECTION
M  V30 MDLV30/STEABS ATOMS=(1 8)
M  V30 END COLLECTION
M  V30 END CTAB
M  END
>  <Molecule ChEMBL ID>
CHEMBL3699382

>  <Smiles>
Cc1c(C)n(Cc2ccc(-c3ccccc3)cc2)c2ccc(C(=O)N[C@@H](C)c3c(F)ccc(F)c3F)cc12

>  <IC50_nM>
17

>  <Assay Description>
Lanthascreen Competitive Binding Assay: The assay was performed according to manufacturer protocol. A mixture of nM GST-PPARG-LBD, 5 nM Tb-GST-antibody, 5 nM Fluormone Pan-PPAR Green, and serial dilutions of the experimental compound, beginning at 10 ׬M downwards, was added to wells of black 384-well low-volume plates (Greiner) to a total volume of 18 ׬L. All dilutions were made in TR-FRET assay buffer C. DMSO at 2% final concentration was used as a no-ligand control. Experiment was performed in triplicate, and incubated for 2 hours in the dark prior to assay read in Perkin Elmer ViewLux ultra HTS microplate reader. FRET signal was measured by excitation at 340 nm and emission at 520 nm for fluorescein and 490 nm for terbium. Fold change over DMSO was calculated using GraphPad Prism Software (La Jolla, Calif.) by calculating 520 nm/490 nm ratio. Graphs were plotted as fold change of FRET signal for compound treatment over DMSO-only control.

$$$$
CHEMBL198207
Actelion Java MolfileCreator 2.0

  0  0  0  0  0  0              0 V3000
M  V30 BEGIN CTAB
M  V30 COUNTS 34 37 0 0 0
M  V30 BEGIN ATOM
M  V30 1 Cl 4.2417 2.0167 0.0 0
M  V30 2 C 3.9327 1.0657 0.0 0
M  V30 3 C 2.9546 0.8577 0.0 0
M  V30 4 C 4.6018 0.3225 0.0 0
M  V30 5 C 2.6455 -0.0932 0.0 0
M  V30 6 C 4.2928 -0.6284 0.0 0
M  V30 7 C 1.732 -0.5 0.0 0
M  V30 8 C 3.3147 -0.8364 0.0 0
M  V30 9 O 0.866 0.0 0.0 0
M  V30 10 C 1.8365 -1.4945 0.0 0
M  V30 11 N 2.8147 -1.7024 0.0 0
M  V30 12 C 0.866 0.9999 0.0 0
M  V30 13 C 1.0934 -2.1636 0.0 0
M  V30 14 C 3.2214 -2.6159 0.0 0
M  V30 15 C 0.0 1.4999 0.0 0
M  V30 16 C 1.732 1.5 0.0 0
M  V30 17 O 0.1423 -1.8546 0.0 0
M  V30 18 O 1.3013 -3.1418 0.0 0
M  V30 19 C 2.6336 -3.4249 0.0 0
M  V30 20 C 4.2159 -2.7205 0.0 0
M  V30 21 C 0.0 2.4999 0.0 0
M  V30 22 C 1.732 2.5 0.0 0
M  V30 23 C 3.0404 -4.3385 0.0 0
M  V30 24 C 4.6227 -3.634 0.0 0
M  V30 25 C 0.866 3.0 0.0 0
M  V30 26 C -0.866 2.9999 0.0 0
M  V30 27 C 4.0349 -4.443 0.0 0
M  V30 28 F -0.366 3.866 0.0 0
M  V30 29 F -1.732 3.4999 0.0 0
M  V30 30 F -1.366 2.1339 0.0 0
M  V30 31 C 4.4416 -5.3566 0.0 0
M  V30 32 C 5.3552 -4.9498 0.0 0
M  V30 33 C 4.8484 -6.2701 0.0 0
M  V30 34 C 3.5281 -5.7633 0.0 0
M  V30 END ATOM
M  V30 BEGIN BOND
M  V30 1 1 1 2
M  V30 2 2 2 3
M  V30 3 1 2 4
M  V30 4 1 3 5
M  V30 5 2 4 6
M  V30 6 1 5 7
M  V30 7 2 5 8
M  V30 8 1 7 9
M  V30 9 2 7 10
M  V30 10 1 8 11
M  V30 11 1 9 12
M  V30 12 1 10 13
M  V30 13 1 11 14
M  V30 14 2 12 15
M  V30 15 1 12 16
M  V30 16 2 13 17
M  V30 17 1 13 18
M  V30 18 2 14 19
M  V30 19 1 14 20
M  V30 20 1 15 21
M  V30 21 2 16 22
M  V30 22 1 19 23
M  V30 23 2 20 24
M  V30 24 2 21 25
M  V30 25 1 21 26
M  V30 26 2 23 27
M  V30 27 1 26 28
M  V30 28 1 26 29
M  V30 29 1 26 30
M  V30 30 1 27 31
M  V30 31 1 31 32
M  V30 32 1 31 33
M  V30 33 1 31 34
M  V30 34 1 6 8
M  V30 35 1 10 11
M  V30 36 1 22 25
M  V30 37 1 24 27
M  V30 END BOND
M  V30 END CTAB
M  END
>  <Molecule ChEMBL ID>
CHEMBL198207

>  <Smiles>
CC(C)(C)c1ccc(-n2c(C(=O)O)c(Oc3cccc(C(F)(F)F)c3)c3cc(Cl)ccc32)cc1

>  <IC50_nM>
17

>  <Assay Description>
Inhibitory concentration against human peroxisome proliferator activated receptor gamma in SPA assay

$$$$
CHEMBL3695862
Actelion Java MolfileCreator 2.0

  0  0  0  0  0  0              0 V3000
M  V30 BEGIN CTAB
M  V30 COUNTS 41 45 0 0 0
M  V30 BEGIN ATOM
M  V30 1 F 3.9641 0.366 0.0 0
M  V30 2 C 3.4641 -0.5 0.0 0
M  V30 3 F 4.3301 -0.9999 0.0 0
M  V30 4 F 2.9641 -1.366 0.0 0
M  V30 5 C 2.598 0.0 0.0 0 CFG=2
M  V30 6 N 1.732 -0.5 0.0 0
M  V30 7 C 2.598 1.0 0.0 0
M  V30 8 C 0.866 0.0 0.0 0
M  V30 9 C 3.4641 1.5 0.0 0
M  V30 10 C 1.732 1.4999 0.0 0
M  V30 11 O 0.866 1.0 0.0 0
M  V30 12 C 0.0 -0.5 0.0 0
M  V30 13 C 3.4641 2.5 0.0 0
M  V30 14 C 1.732 2.5 0.0 0
M  V30 15 C 0.0 -1.4999 0.0 0
M  V30 16 C -0.866 0.0 0.0 0
M  V30 17 C 2.598 3.0 0.0 0
M  V30 18 C 4.3301 3.0 0.0 0
M  V30 19 C -0.866 -1.9999 0.0 0
M  V30 20 C -1.732 -0.4999 0.0 0
M  V30 21 C 5.1961 2.5 0.0 0
M  V30 22 C 4.3301 4.0 0.0 0
M  V30 23 C -1.732 -1.4999 0.0 0
M  V30 24 C -1.0739 -2.9781 0.0 0
M  V30 25 N -2.4751 -2.1691 0.0 0
M  V30 26 C -2.0684 -3.0826 0.0 0
M  V30 27 C -0.4048 -3.7212 0.0 0
M  V30 28 C -3.4533 -1.9612 0.0 0
M  V30 29 C -2.5684 -3.9487 0.0 0
M  V30 30 C -4.1224 -2.7043 0.0 0
M  V30 31 C -5.1006 -2.4964 0.0 0
M  V30 32 C -3.8134 -3.6554 0.0 0
M  V30 33 C -5.7697 -3.2395 0.0 0
M  V30 34 C -4.4825 -4.3985 0.0 0
M  V30 35 C -5.4607 -4.1906 0.0 0
M  V30 36 C -6.1298 -4.9337 0.0 0
M  V30 37 C -7.108 -4.7258 0.0 0
M  V30 38 C -5.8208 -5.8848 0.0 0
M  V30 39 C -7.7771 -5.469 0.0 0
M  V30 40 C -6.4899 -6.6279 0.0 0
M  V30 41 C -7.4681 -6.42 0.0 0
M  V30 END ATOM
M  V30 BEGIN BOND
M  V30 1 1 1 2
M  V30 2 1 2 3
M  V30 3 1 2 4
M  V30 4 1 2 5
M  V30 5 1 5 6 CFG=3
M  V30 6 1 5 7
M  V30 7 1 6 8
M  V30 8 2 7 9
M  V30 9 1 7 10
M  V30 10 2 8 11
M  V30 11 1 8 12
M  V30 12 1 9 13
M  V30 13 2 10 14
M  V30 14 2 12 15
M  V30 15 1 12 16
M  V30 16 2 13 17
M  V30 17 1 13 18
M  V30 18 1 15 19
M  V30 19 2 16 20
M  V30 20 1 18 21
M  V30 21 1 18 22
M  V30 22 2 19 23
M  V30 23 1 19 24
M  V30 24 1 23 25
M  V30 25 2 24 26
M  V30 26 1 24 27
M  V30 27 1 25 28
M  V30 28 1 26 29
M  V30 29 1 28 30
M  V30 30 2 30 31
M  V30 31 1 30 32
M  V30 32 1 31 33
M  V30 33 2 32 34
M  V30 34 2 33 35
M  V30 35 1 35 36
M  V30 36 2 36 37
M  V30 37 1 36 38
M  V30 38 1 37 39
M  V30 39 2 38 40
M  V30 40 2 39 41
M  V30 41 1 14 17
M  V30 42 1 20 23
M  V30 43 1 25 26
M  V30 44 1 34 35
M  V30 45 1 40 41
M  V30 END BOND
M  V30 BEGIN COLLECTION
M  V30 MDLV30/STEABS ATOMS=(1 5)
M  V30 END COLLECTION
M  V30 END CTAB
M  END
>  <Molecule ChEMBL ID>
CHEMBL3695862

>  <Smiles>
Cc1c(C)n(Cc2ccc(-c3ccccc3)cc2)c2ccc(C(=O)N[C@H](c3cccc(C(C)C)c3)C(F)(F)F)cc12

>  <IC50_nM>
17

>  <Assay Description>
Lanthascreen Competitive Binding Assay: The assay was performed according to manufacturer protocol. A mixture of nM GST-PPARG-LBD, 5 nM Tb-GST-antibody, 5 nM Fluormone Pan-PPAR Green, and serial dilutions of the experimental compound, beginning at 10 ׬M downwards, was added to wells of black 384-well low-volume plates (Greiner) to a total volume of 18 ׬L. All dilutions were made in TR-FRET assay buffer C. DMSO at 2% final concentration was used as a no-ligand control. Experiment was performed in triplicate, and incubated for 2 hours in the dark prior to assay read in Perkin Elmer ViewLux ultra HTS microplate reader. FRET signal was measured by excitation at 340 nm and emission at 520 nm for fluorescein and 490 nm for terbium. Fold change over DMSO was calculated using GraphPad Prism Software (La Jolla, Calif.) by calculating 520 nm/490 nm ratio. Graphs were plotted as fold change of FRET signal for compound treatment over DMSO-only control.

$$$$
CHEMBL3695915
Actelion Java MolfileCreator 2.0

  0  0  0  0  0  0              0 V3000
M  V30 BEGIN CTAB
M  V30 COUNTS 41 45 0 0 0
M  V30 BEGIN ATOM
M  V30 1 Cl 4.3301 -2.9999 0.0 0
M  V30 2 C 4.3301 -1.9999 0.0 0
M  V30 3 C 5.1961 -1.5 0.0 0
M  V30 4 C 3.4641 -1.5 0.0 0
M  V30 5 O 6.0621 -2.0 0.0 0
M  V30 6 C 5.1961 -0.5 0.0 0
M  V30 7 C 3.4641 -0.5 0.0 0
M  V30 8 C 6.9282 -1.5 0.0 0
M  V30 9 C 4.3301 0.0 0.0 0
M  V30 10 C 2.598 0.0 0.0 0 CFG=1
M  V30 11 N 1.732 -0.5 0.0 0
M  V30 12 C 2.598 1.0 0.0 0
M  V30 13 C 0.866 0.0 0.0 0
M  V30 14 O 0.866 1.0 0.0 0
M  V30 15 C 0.0 -0.5 0.0 0
M  V30 16 C 0.0 -1.4999 0.0 0
M  V30 17 C -0.866 0.0 0.0 0
M  V30 18 C -0.866 -1.9999 0.0 0
M  V30 19 C -1.732 -0.4999 0.0 0
M  V30 20 C -1.732 -1.4999 0.0 0
M  V30 21 C -1.0739 -2.9781 0.0 0
M  V30 22 N -2.4751 -2.1691 0.0 0
M  V30 23 C -2.0684 -3.0826 0.0 0
M  V30 24 C -0.4048 -3.7212 0.0 0
M  V30 25 C -3.4533 -1.9612 0.0 0
M  V30 26 C -2.5684 -3.9487 0.0 0
M  V30 27 C -4.1224 -2.7043 0.0 0
M  V30 28 C -5.1006 -2.4964 0.0 0
M  V30 29 C -3.8134 -3.6554 0.0 0
M  V30 30 C -5.7697 -3.2395 0.0 0
M  V30 31 C -4.4825 -4.3985 0.0 0
M  V30 32 C -5.4607 -4.1906 0.0 0
M  V30 33 C -6.1298 -4.9337 0.0 0
M  V30 34 C -7.108 -4.7258 0.0 0
M  V30 35 C -5.8208 -5.8848 0.0 0
M  V30 36 C -7.417 -3.7748 0.0 0
M  V30 37 C -7.7771 -5.469 0.0 0
M  V30 38 C -6.4899 -6.6279 0.0 0
M  V30 39 O -6.7478 -3.0316 0.0 0
M  V30 40 O -8.3951 -3.5669 0.0 0
M  V30 41 C -7.4681 -6.42 0.0 0
M  V30 END ATOM
M  V30 BEGIN BOND
M  V30 1 1 1 2
M  V30 2 2 2 3
M  V30 3 1 2 4
M  V30 4 1 3 5
M  V30 5 1 3 6
M  V30 6 2 4 7
M  V30 7 1 5 8
M  V30 8 2 6 9
M  V30 9 1 7 10
M  V30 10 1 10 11
M  V30 11 1 10 12 CFG=1
M  V30 12 1 11 13
M  V30 13 2 13 14
M  V30 14 1 13 15
M  V30 15 2 15 16
M  V30 16 1 15 17
M  V30 17 1 16 18
M  V30 18 2 17 19
M  V30 19 2 18 20
M  V30 20 1 18 21
M  V30 21 1 20 22
M  V30 22 2 21 23
M  V30 23 1 21 24
M  V30 24 1 22 25
M  V30 25 1 23 26
M  V30 26 1 25 27
M  V30 27 2 27 28
M  V30 28 1 27 29
M  V30 29 1 28 30
M  V30 30 2 29 31
M  V30 31 2 30 32
M  V30 32 1 32 33
M  V30 33 2 33 34
M  V30 34 1 33 35
M  V30 35 1 34 36
M  V30 36 1 34 37
M  V30 37 2 35 38
M  V30 38 2 36 39
M  V30 39 1 36 40
M  V30 40 2 37 41
M  V30 41 1 7 9
M  V30 42 1 19 20
M  V30 43 1 22 23
M  V30 44 1 31 32
M  V30 45 1 38 41
M  V30 END BOND
M  V30 BEGIN COLLECTION
M  V30 MDLV30/STEABS ATOMS=(1 10)
M  V30 END COLLECTION
M  V30 END CTAB
M  END
>  <Molecule ChEMBL ID>
CHEMBL3695915

>  <Smiles>
COc1ccc([C@H](C)NC(=O)c2ccc3c(c2)c(C)c(C)n3Cc2ccc(-c3ccccc3C(=O)O)cc2)cc1Cl

>  <IC50_nM>
17

>  <Assay Description>
Lanthascreen Competitive Binding Assay: The assay was performed according to manufacturer protocol. A mixture of nM GST-PPARG-LBD, 5 nM Tb-GST-antibody, 5 nM Fluormone Pan-PPAR Green, and serial dilutions of the experimental compound, beginning at 10 ׬M downwards, was added to wells of black 384-well low-volume plates (Greiner) to a total volume of 18 ׬L. All dilutions were made in TR-FRET assay buffer C. DMSO at 2% final concentration was used as a no-ligand control. Experiment was performed in triplicate, and incubated for 2 hours in the dark prior to assay read in Perkin Elmer ViewLux ultra HTS microplate reader. FRET signal was measured by excitation at 340 nm and emission at 520 nm for fluorescein and 490 nm for terbium. Fold change over DMSO was calculated using GraphPad Prism Software (La Jolla, Calif.) by calculating 520 nm/490 nm ratio. Graphs were plotted as fold change of FRET signal for compound treatment over DMSO-only control.

$$$$
CHEMBL4434731
Actelion Java MolfileCreator 2.0

  0  0  0  0  0  0              0 V3000
M  V30 BEGIN CTAB
M  V30 COUNTS 40 44 0 0 0
M  V30 BEGIN ATOM
M  V30 1 O 11.8592 -3.5669 0.0 0
M  V30 2 C 10.8811 -3.7748 0.0 0
M  V30 3 O 10.212 -3.0316 0.0 0
M  V30 4 C 10.5721 -4.7258 0.0 0
M  V30 5 C 9.5939 -4.9337 0.0 0
M  V30 6 C 11.2412 -5.469 0.0 0
M  V30 7 C 8.9248 -4.1906 0.0 0
M  V30 8 C 9.2849 -5.8848 0.0 0
M  V30 9 C 10.9322 -6.42 0.0 0
M  V30 10 C 9.2338 -3.2395 0.0 0
M  V30 11 C 7.9466 -4.3985 0.0 0
M  V30 12 C 9.954 -6.6279 0.0 0
M  V30 13 C 8.5647 -2.4964 0.0 0
M  V30 14 C 7.2775 -3.6554 0.0 0
M  V30 15 C 7.5865 -2.7043 0.0 0
M  V30 16 C 6.9174 -1.9612 0.0 0
M  V30 17 N 5.9392 -2.1691 0.0 0
M  V30 18 C 5.1961 -1.4999 0.0 0
M  V30 19 C 5.5325 -3.0826 0.0 0
M  V30 20 C 4.3301 -1.9999 0.0 0
M  V30 21 C 5.1961 -0.4999 0.0 0
M  V30 22 C 4.538 -2.9781 0.0 0
M  V30 23 C 6.0325 -3.9487 0.0 0
M  V30 24 C 3.4641 -1.5 0.0 0
M  V30 25 C 4.3301 0.0 0.0 0
M  V30 26 C 3.8689 -3.7212 0.0 0
M  V30 27 C 3.4641 -0.5 0.0 0
M  V30 28 C 2.598 0.0 0.0 0
M  V30 29 O 2.598 1.0 0.0 0
M  V30 30 N 1.732 -0.5 0.0 0
M  V30 31 C 0.866 0.0 0.0 0
M  V30 32 C 0.0 -0.5 0.0 0
M  V30 33 C -0.866 0.0 0.0 0
M  V30 34 C 0.0 -1.4999 0.0 0
M  V30 35 C -1.732 -0.4999 0.0 0
M  V30 36 C -0.866 -1.9999 0.0 0
M  V30 37 O -2.598 0.0 0.0 0
M  V30 38 C -1.732 -1.4999 0.0 0
M  V30 39 C -3.4641 -0.4999 0.0 0
M  V30 40 O -2.598 -1.9999 0.0 0
M  V30 END ATOM
M  V30 BEGIN BOND
M  V30 1 2 1 2
M  V30 2 1 2 3
M  V30 3 1 2 4
M  V30 4 2 4 5
M  V30 5 1 4 6
M  V30 6 1 5 7
M  V30 7 1 5 8
M  V30 8 2 6 9
M  V30 9 2 7 10
M  V30 10 1 7 11
M  V30 11 2 8 12
M  V30 12 1 10 13
M  V30 13 2 11 14
M  V30 14 2 13 15
M  V30 15 1 15 16
M  V30 16 1 16 17
M  V30 17 1 17 18
M  V30 18 1 17 19
M  V30 19 2 18 20
M  V30 20 1 18 21
M  V30 21 2 19 22
M  V30 22 1 19 23
M  V30 23 1 20 24
M  V30 24 2 21 25
M  V30 25 1 22 26
M  V30 26 2 24 27
M  V30 27 1 27 28
M  V30 28 2 28 29
M  V30 29 1 28 30
M  V30 30 1 30 31
M  V30 31 1 31 32
M  V30 32 2 32 33
M  V30 33 1 32 34
M  V30 34 1 33 35
M  V30 35 2 34 36
M  V30 36 1 35 37
M  V30 37 2 35 38
M  V30 38 1 37 39
M  V30 39 1 38 40
M  V30 40 1 9 12
M  V30 41 1 14 15
M  V30 42 1 20 22
M  V30 43 1 25 27
M  V30 44 1 36 38
M  V30 END BOND
M  V30 END CTAB
M  END
>  <Molecule ChEMBL ID>
CHEMBL4434731

>  <Smiles>
COc1cc(CNC(=O)c2ccc3c(c2)c(C)c(C)n3Cc2ccc(-c3ccccc3C(=O)O)cc2)ccc1O

>  <IC50_nM>
17

>  <Assay Description>
Displacement of fluormone PPAR green tracer ligand from recombinant GST-tagged PPARgamma ligand binding domain (unknown origin) incubated for 4 hrs by competitive fluorescence polarization binding assay

$$$$
CHEMBL3736263
Actelion Java MolfileCreator 2.0

  0  0  0  0  0  0              0 V3000
M  V30 BEGIN CTAB
M  V30 COUNTS 44 48 0 0 0
M  V30 BEGIN ATOM
M  V30 1 F 3.9641 0.366 0.0 0
M  V30 2 C 3.4641 -0.5 0.0 0
M  V30 3 F 4.3301 -0.9999 0.0 0
M  V30 4 F 2.9641 -1.366 0.0 0
M  V30 5 C 2.598 0.0 0.0 0 CFG=1
M  V30 6 N 1.732 -0.5 0.0 0
M  V30 7 C 2.598 1.0 0.0 0
M  V30 8 C 0.866 0.0 0.0 0
M  V30 9 C 3.4641 1.5 0.0 0
M  V30 10 C 1.732 1.4999 0.0 0
M  V30 11 O 0.866 1.0 0.0 0
M  V30 12 C 0.0 -0.5 0.0 0
M  V30 13 C 3.4641 2.5 0.0 0
M  V30 14 C 1.732 2.5 0.0 0
M  V30 15 C 0.0 -1.4999 0.0 0
M  V30 16 C -0.866 0.0 0.0 0
M  V30 17 C 2.598 3.0 0.0 0
M  V30 18 C 4.3301 3.0 0.0 0
M  V30 19 C -0.866 -1.9999 0.0 0
M  V30 20 C -1.732 -0.4999 0.0 0
M  V30 21 C 5.1961 2.5 0.0 0
M  V30 22 C 4.3301 4.0 0.0 0
M  V30 23 C -1.732 -1.4999 0.0 0
M  V30 24 C -1.0739 -2.9781 0.0 0
M  V30 25 N -2.4751 -2.1691 0.0 0
M  V30 26 C -2.0684 -3.0826 0.0 0
M  V30 27 C -0.4048 -3.7212 0.0 0
M  V30 28 C -3.4533 -1.9612 0.0 0
M  V30 29 C -2.5684 -3.9487 0.0 0
M  V30 30 C -4.1224 -2.7043 0.0 0
M  V30 31 C -5.1006 -2.4964 0.0 0
M  V30 32 C -3.8134 -3.6554 0.0 0
M  V30 33 C -5.7697 -3.2395 0.0 0
M  V30 34 C -4.4825 -4.3985 0.0 0
M  V30 35 C -5.4607 -4.1906 0.0 0
M  V30 36 C -6.1298 -4.9337 0.0 0
M  V30 37 C -7.108 -4.7258 0.0 0
M  V30 38 C -5.8208 -5.8848 0.0 0
M  V30 39 C -7.417 -3.7748 0.0 0
M  V30 40 C -7.7771 -5.469 0.0 0
M  V30 41 C -6.4899 -6.6279 0.0 0
M  V30 42 O -6.7478 -3.0316 0.0 0
M  V30 43 O -8.3951 -3.5669 0.0 0
M  V30 44 C -7.4681 -6.42 0.0 0
M  V30 END ATOM
M  V30 BEGIN BOND
M  V30 1 1 1 2
M  V30 2 1 2 3
M  V30 3 1 2 4
M  V30 4 1 2 5
M  V30 5 1 5 6 CFG=1
M  V30 6 1 5 7
M  V30 7 1 6 8
M  V30 8 2 7 9
M  V30 9 1 7 10
M  V30 10 2 8 11
M  V30 11 1 8 12
M  V30 12 1 9 13
M  V30 13 2 10 14
M  V30 14 2 12 15
M  V30 15 1 12 16
M  V30 16 2 13 17
M  V30 17 1 13 18
M  V30 18 1 15 19
M  V30 19 2 16 20
M  V30 20 1 18 21
M  V30 21 1 18 22
M  V30 22 2 19 23
M  V30 23 1 19 24
M  V30 24 1 23 25
M  V30 25 2 24 26
M  V30 26 1 24 27
M  V30 27 1 25 28
M  V30 28 1 26 29
M  V30 29 1 28 30
M  V30 30 2 30 31
M  V30 31 1 30 32
M  V30 32 1 31 33
M  V30 33 2 32 34
M  V30 34 2 33 35
M  V30 35 1 35 36
M  V30 36 2 36 37
M  V30 37 1 36 38
M  V30 38 1 37 39
M  V30 39 1 37 40
M  V30 40 2 38 41
M  V30 41 2 39 42
M  V30 42 1 39 43
M  V30 43 2 40 44
M  V30 44 1 14 17
M  V30 45 1 20 23
M  V30 46 1 25 26
M  V30 47 1 34 35
M  V30 48 1 41 44
M  V30 END BOND
M  V30 BEGIN COLLECTION
M  V30 MDLV30/STEABS ATOMS=(1 5)
M  V30 END COLLECTION
M  V30 END CTAB
M  END
>  <Molecule ChEMBL ID>
CHEMBL3736263

>  <Smiles>
Cc1c(C)n(Cc2ccc(-c3ccccc3C(=O)O)cc2)c2ccc(C(=O)N[C@@H](c3cccc(C(C)C)c3)C(F)(F)F)cc12

>  <IC50_nM>
17

>  <Assay Description>
Binding affinity to GST-tagged PPAR-gamma-LBD (unknown origin) after 2 hrs by Lantha screen assay using fluormone Pan-PPAR green probe

$$$$
CHEMBL446365
Actelion Java MolfileCreator 2.0

  0  0  0  0  0  0              0 V3000
M  V30 BEGIN CTAB
M  V30 COUNTS 37 40 0 0 0
M  V30 BEGIN ATOM
M  V30 1 O 4.3301 0.0 0.0 0
M  V30 2 C 3.4641 -0.5 0.0 0
M  V30 3 O 2.598 0.0 0.0 0
M  V30 4 N 3.4641 -1.5 0.0 0
M  V30 5 C 1.732 -0.5 0.0 0
M  V30 6 C 2.598 -2.0 0.0 0
M  V30 7 C 4.3301 -2.0 0.0 0
M  V30 8 C 0.866 0.0 0.0 0
M  V30 9 C 2.598 -3.0 0.0 0
M  V30 10 C 4.3301 -2.9999 0.0 0
M  V30 11 C 0.866 1.0 0.0 0
M  V30 12 C 0.0 -0.5 0.0 0
M  V30 13 C 3.4641 -3.5 0.0 0
M  V30 14 C 1.732 -3.5 0.0 0
M  V30 15 C 3.4641 -4.5 0.0 0
M  V30 16 C 1.732 -4.4999 0.0 0
M  V30 17 C 0.866 -3.0 0.0 0
M  V30 18 O 4.3301 -5.0 0.0 0
M  V30 19 C 2.598 -5.0 0.0 0
M  V30 20 C 0.0 -3.4999 0.0 0
M  V30 21 C 5.1961 -4.5 0.0 0
M  V30 22 C -0.866 -2.9999 0.0 0
M  V30 23 C 6.0621 -5.0 0.0 0
M  V30 24 O -0.866 -1.9999 0.0 0
M  V30 25 O -1.732 -3.4999 0.0 0
M  V30 26 C 6.9282 -4.5 0.0 0
M  V30 27 N 7.8417 -4.9067 0.0 0
M  V30 28 C 7.0327 -3.5054 0.0 0
M  V30 29 C 8.5108 -4.1635 0.0 0
M  V30 30 O 8.0108 -3.2975 0.0 0
M  V30 31 C 6.2895 -2.8363 0.0 0
M  V30 32 C 9.5054 -4.2681 0.0 0
M  V30 33 C 9.9121 -5.1816 0.0 0
M  V30 34 C 10.0931 -3.4591 0.0 0
M  V30 35 C 10.9066 -5.2861 0.0 0
M  V30 36 C 11.0877 -3.5636 0.0 0
M  V30 37 C 11.4944 -4.4771 0.0 0
M  V30 END ATOM
M  V30 BEGIN BOND
M  V30 1 2 1 2
M  V30 2 1 2 3
M  V30 3 1 2 4
M  V30 4 1 3 5
M  V30 5 1 4 6
M  V30 6 1 4 7
M  V30 7 1 5 8
M  V30 8 1 6 9
M  V30 9 1 7 10
M  V30 10 1 8 11
M  V30 11 1 8 12
M  V30 12 2 9 13
M  V30 13 1 9 14
M  V30 14 1 13 15
M  V30 15 2 14 16
M  V30 16 1 14 17
M  V30 17 1 15 18
M  V30 18 2 15 19
M  V30 19 1 17 20
M  V30 20 1 18 21
M  V30 21 1 20 22
M  V30 22 1 21 23
M  V30 23 2 22 24
M  V30 24 1 22 25
M  V30 25 1 23 26
M  V30 26 1 26 27
M  V30 27 2 26 28
M  V30 28 2 27 29
M  V30 29 1 28 30
M  V30 30 1 28 31
M  V30 31 1 29 32
M  V30 32 2 32 33
M  V30 33 1 32 34
M  V30 34 1 33 35
M  V30 35 2 34 36
M  V30 36 2 35 37
M  V30 37 1 10 13
M  V30 38 1 16 19
M  V30 39 1 29 30
M  V30 40 1 36 37
M  V30 END BOND
M  V30 END CTAB
M  END
>  <Molecule ChEMBL ID>
CHEMBL446365

>  <Smiles>
Cc1oc(-c2ccccc2)nc1CCOc1ccc(CCC(=O)O)c2c1CCN(C(=O)OCC(C)C)C2

>  <IC50_nM>
17

>  <Assay Description>
Displacement of tritium labeled ligand from human PPARgamma by SPA assay

$$$$
CHEMBL3699385
Actelion Java MolfileCreator 2.0

  0  0  0  0  0  0              0 V3000
M  V30 BEGIN CTAB
M  V30 COUNTS 40 44 0 0 0
M  V30 BEGIN ATOM
M  V30 1 F 6.4951 -4.4999 0.0 0
M  V30 2 C 6.4951 -2.9999 0.0 0
M  V30 3 C 5.1961 -2.25 0.0 0
M  V30 4 C 7.7942 -2.2499 0.0 0
M  V30 5 C 5.1961 -0.75 0.0 0
M  V30 6 C 7.7942 -0.7499 0.0 0
M  V30 7 C 6.4951 0.0 0.0 0
M  V30 8 C 3.8971 0.0 0.0 0 CFG=2
M  V30 9 C 6.4951 1.5 0.0 0
M  V30 10 N 2.598 -0.75 0.0 0
M  V30 11 C 3.8971 1.5 0.0 0
M  V30 12 F 7.9951 1.5 0.0 0
M  V30 13 F 6.4951 3.0 0.0 0
M  V30 14 F 4.9951 1.4999 0.0 0
M  V30 15 C 1.299 0.0 0.0 0
M  V30 16 O 1.299 1.5 0.0 0
M  V30 17 C 0.0 -0.75 0.0 0
M  V30 18 C 0.0 -2.2499 0.0 0
M  V30 19 C -1.299 0.0 0.0 0
M  V30 20 C -1.299 -2.9999 0.0 0
M  V30 21 C -2.598 -0.7499 0.0 0
M  V30 22 C -2.598 -2.2499 0.0 0
M  V30 23 C -1.6109 -4.4672 0.0 0
M  V30 24 N -3.7127 -3.2536 0.0 0
M  V30 25 C -3.1026 -4.624 0.0 0
M  V30 26 C -0.6072 -5.5819 0.0 0
M  V30 27 C -5.18 -2.9418 0.0 0
M  V30 28 C -3.8526 -5.923 0.0 0
M  V30 29 C -6.1837 -4.0565 0.0 0
M  V30 30 C -7.6509 -3.7446 0.0 0
M  V30 31 C -5.7201 -5.4831 0.0 0
M  V30 32 C -8.6546 -4.8593 0.0 0
M  V30 33 C -6.7238 -6.5978 0.0 0
M  V30 34 C -8.1911 -6.2859 0.0 0
M  V30 35 C -9.1947 -7.4006 0.0 0
M  V30 36 C -10.662 -7.0888 0.0 0
M  V30 37 C -8.7312 -8.8272 0.0 0
M  V30 38 C -11.6657 -8.2035 0.0 0
M  V30 39 C -9.7349 -9.9419 0.0 0
M  V30 40 C -11.2021 -9.6301 0.0 0
M  V30 END ATOM
M  V30 BEGIN BOND
M  V30 1 1 1 2
M  V30 2 2 2 3
M  V30 3 1 2 4
M  V30 4 1 3 5
M  V30 5 2 4 6
M  V30 6 2 5 7
M  V30 7 1 5 8
M  V30 8 1 7 9
M  V30 9 1 8 10
M  V30 10 1 8 11 CFG=3
M  V30 11 1 9 12
M  V30 12 1 9 13
M  V30 13 1 9 14
M  V30 14 1 10 15
M  V30 15 2 15 16
M  V30 16 1 15 17
M  V30 17 2 17 18
M  V30 18 1 17 19
M  V30 19 1 18 20
M  V30 20 2 19 21
M  V30 21 2 20 22
M  V30 22 1 20 23
M  V30 23 1 22 24
M  V30 24 2 23 25
M  V30 25 1 23 26
M  V30 26 1 24 27
M  V30 27 1 25 28
M  V30 28 1 27 29
M  V30 29 2 29 30
M  V30 30 1 29 31
M  V30 31 1 30 32
M  V30 32 2 31 33
M  V30 33 2 32 34
M  V30 34 1 34 35
M  V30 35 2 35 36
M  V30 36 1 35 37
M  V30 37 1 36 38
M  V30 38 2 37 39
M  V30 39 2 38 40
M  V30 40 1 6 7
M  V30 41 1 21 22
M  V30 42 1 24 25
M  V30 43 1 33 34
M  V30 44 1 39 40
M  V30 END BOND
M  V30 BEGIN COLLECTION
M  V30 MDLV30/STEABS ATOMS=(1 8)
M  V30 END COLLECTION
M  V30 END CTAB
M  END
>  <Molecule ChEMBL ID>
CHEMBL3699385

>  <Smiles>
Cc1c(C)n(Cc2ccc(-c3ccccc3)cc2)c2ccc(C(=O)N[C@H](C)c3cc(F)ccc3C(F)(F)F)cc12

>  <IC50_nM>
17

>  <Assay Description>
Lanthascreen Competitive Binding Assay: The assay was performed according to manufacturer protocol. A mixture of nM GST-PPARG-LBD, 5 nM Tb-GST-antibody, 5 nM Fluormone Pan-PPAR Green, and serial dilutions of the experimental compound, beginning at 10 ׬M downwards, was added to wells of black 384-well low-volume plates (Greiner) to a total volume of 18 ׬L. All dilutions were made in TR-FRET assay buffer C. DMSO at 2% final concentration was used as a no-ligand control. Experiment was performed in triplicate, and incubated for 2 hours in the dark prior to assay read in Perkin Elmer ViewLux ultra HTS microplate reader. FRET signal was measured by excitation at 340 nm and emission at 520 nm for fluorescein and 490 nm for terbium. Fold change over DMSO was calculated using GraphPad Prism Software (La Jolla, Calif.) by calculating 520 nm/490 nm ratio. Graphs were plotted as fold change of FRET signal for compound treatment over DMSO-only control.

$$$$
CHEMBL1236924
Actelion Java MolfileCreator 2.0

  0  0  0  0  0  0              0 V3000
M  V30 BEGIN CTAB
M  V30 COUNTS 31 34 0 0 0
M  V30 BEGIN ATOM
M  V30 1 Cl 7.7942 -0.75 0.0 0
M  V30 2 C 6.4951 0.0 0.0 0
M  V30 3 C 6.4951 1.5 0.0 0
M  V30 4 C 5.1961 -0.75 0.0 0
M  V30 5 O 7.7942 2.25 0.0 0
M  V30 6 C 5.1961 2.25 0.0 0
M  V30 7 C 3.8971 0.0 0.0 0
M  V30 8 C 7.7942 3.75 0.0 0
M  V30 9 Cl 5.1961 3.75 0.0 0
M  V30 10 C 3.8971 1.5 0.0 0
M  V30 11 N 2.598 -0.75 0.0 0
M  V30 12 C 9.0932 4.5 0.0 0
M  V30 13 C 6.4951 4.5 0.0 0
M  V30 14 S 1.299 0.0 0.0 0
M  V30 15 N 9.0932 6.0 0.0 0
M  V30 16 C 6.4951 6.0 0.0 0
M  V30 17 O 2.049 1.299 0.0 0
M  V30 18 O 0.549 1.299 0.0 0
M  V30 19 C 0.0 -0.75 0.0 0
M  V30 20 C 7.7942 6.75 0.0 0
M  V30 21 C 5.1961 6.75 0.0 0
M  V30 22 C -1.299 0.0 0.0 0
M  V30 23 C 0.0 -2.25 0.0 0
M  V30 24 C 7.7942 8.25 0.0 0
M  V30 25 C 5.1961 8.25 0.0 0
M  V30 26 Cl -1.299 1.5 0.0 0
M  V30 27 C -2.598 -0.75 0.0 0
M  V30 28 C -1.299 -3.0 0.0 0
M  V30 29 C 6.4951 9.0 0.0 0
M  V30 30 C -2.598 -2.25 0.0 0
M  V30 31 Cl -3.8971 -3.0 0.0 0
M  V30 END ATOM
M  V30 BEGIN BOND
M  V30 1 1 1 2
M  V30 2 2 2 3
M  V30 3 1 2 4
M  V30 4 1 3 5
M  V30 5 1 3 6
M  V30 6 2 4 7
M  V30 7 1 5 8
M  V30 8 1 6 9
M  V30 9 2 6 10
M  V30 10 1 7 11
M  V30 11 1 8 12
M  V30 12 2 8 13
M  V30 13 1 11 14
M  V30 14 2 12 15
M  V30 15 1 13 16
M  V30 16 2 14 17
M  V30 17 2 14 18
M  V30 18 1 14 19
M  V30 19 1 15 20
M  V30 20 2 16 21
M  V30 21 2 19 22
M  V30 22 1 19 23
M  V30 23 2 20 24
M  V30 24 1 21 25
M  V30 25 1 22 26
M  V30 26 1 22 27
M  V30 27 2 23 28
M  V30 28 1 24 29
M  V30 29 2 27 30
M  V30 30 1 30 31
M  V30 31 1 7 10
M  V30 32 1 16 20
M  V30 33 2 25 29
M  V30 34 1 28 30
M  V30 END BOND
M  V30 END CTAB
M  END
>  <Molecule ChEMBL ID>
CHEMBL1236924

>  <Smiles>
O=S(=O)(Nc1cc(Cl)c(Oc2cnc3ccccc3c2)c(Cl)c1)c1ccc(Cl)cc1Cl

>  <IC50_nM>
17

>  <Assay Description>
Displacement of [3H]-rosiglitazone from GST-tagged PPARgammaLBD (unknown origin) after 1 hr by scintillation proximity assay

$$$$
CHEMBL3695851
Actelion Java MolfileCreator 2.0

  0  0  0  0  0  0              0 V3000
M  V30 BEGIN CTAB
M  V30 COUNTS 38 42 0 0 0
M  V30 BEGIN ATOM
M  V30 1 Br 4.3301 0.9999 0.0 0
M  V30 2 C 4.3301 0.0 0.0 0
M  V30 3 C 3.4641 -0.5 0.0 0
M  V30 4 C 5.1961 -0.5 0.0 0
M  V30 5 C 3.4641 -1.5 0.0 0
M  V30 6 C 2.598 0.0 0.0 0
M  V30 7 C 5.1961 -1.5 0.0 0
M  V30 8 C 4.3301 -2.0 0.0 0
M  V30 9 N 1.732 -0.5 0.0 0
M  V30 10 C 0.866 0.0 0.0 0
M  V30 11 O 0.866 1.0 0.0 0
M  V30 12 C 0.0 -0.5 0.0 0
M  V30 13 C 0.0 -1.4999 0.0 0
M  V30 14 C -0.866 0.0 0.0 0
M  V30 15 C -0.866 -1.9999 0.0 0
M  V30 16 C -1.732 -0.4999 0.0 0
M  V30 17 C -1.732 -1.4999 0.0 0
M  V30 18 C -1.0739 -2.9781 0.0 0
M  V30 19 N -2.4751 -2.1691 0.0 0
M  V30 20 C -2.0684 -3.0826 0.0 0
M  V30 21 C -0.4048 -3.7212 0.0 0
M  V30 22 C -3.4533 -1.9612 0.0 0
M  V30 23 C -2.5684 -3.9487 0.0 0
M  V30 24 C -4.1224 -2.7043 0.0 0
M  V30 25 C -5.1006 -2.4964 0.0 0
M  V30 26 C -3.8134 -3.6554 0.0 0
M  V30 27 C -5.7697 -3.2395 0.0 0
M  V30 28 C -4.4825 -4.3985 0.0 0
M  V30 29 C -5.4607 -4.1906 0.0 0
M  V30 30 C -6.1298 -4.9337 0.0 0
M  V30 31 C -7.108 -4.7258 0.0 0
M  V30 32 C -5.8208 -5.8848 0.0 0
M  V30 33 C -7.417 -3.7748 0.0 0
M  V30 34 C -7.7771 -5.469 0.0 0
M  V30 35 C -6.4899 -6.6279 0.0 0
M  V30 36 O -6.7478 -3.0316 0.0 0
M  V30 37 O -8.3951 -3.5669 0.0 0
M  V30 38 C -7.4681 -6.42 0.0 0
M  V30 END ATOM
M  V30 BEGIN BOND
M  V30 1 1 1 2
M  V30 2 2 2 3
M  V30 3 1 2 4
M  V30 4 1 3 5
M  V30 5 1 3 6
M  V30 6 2 4 7
M  V30 7 2 5 8
M  V30 8 1 6 9
M  V30 9 1 9 10
M  V30 10 2 10 11
M  V30 11 1 10 12
M  V30 12 2 12 13
M  V30 13 1 12 14
M  V30 14 1 13 15
M  V30 15 2 14 16
M  V30 16 2 15 17
M  V30 17 1 15 18
M  V30 18 1 17 19
M  V30 19 2 18 20
M  V30 20 1 18 21
M  V30 21 1 19 22
M  V30 22 1 20 23
M  V30 23 1 22 24
M  V30 24 2 24 25
M  V30 25 1 24 26
M  V30 26 1 25 27
M  V30 27 2 26 28
M  V30 28 2 27 29
M  V30 29 1 29 30
M  V30 30 2 30 31
M  V30 31 1 30 32
M  V30 32 1 31 33
M  V30 33 1 31 34
M  V30 34 2 32 35
M  V30 35 2 33 36
M  V30 36 1 33 37
M  V30 37 2 34 38
M  V30 38 1 7 8
M  V30 39 1 16 17
M  V30 40 1 19 20
M  V30 41 1 28 29
M  V30 42 1 35 38
M  V30 END BOND
M  V30 END CTAB
M  END
>  <Molecule ChEMBL ID>
CHEMBL3695851

>  <Smiles>
Cc1c(C)n(Cc2ccc(-c3ccccc3C(=O)O)cc2)c2ccc(C(=O)NCc3ccccc3Br)cc12

>  <IC50_nM>
17

>  <Assay Description>
Lanthascreen Competitive Binding Assay: The assay was performed according to manufacturer protocol. A mixture of nM GST-PPARG-LBD, 5 nM Tb-GST-antibody, 5 nM Fluormone Pan-PPAR Green, and serial dilutions of the experimental compound, beginning at 10 ׬M downwards, was added to wells of black 384-well low-volume plates (Greiner) to a total volume of 18 ׬L. All dilutions were made in TR-FRET assay buffer C. DMSO at 2% final concentration was used as a no-ligand control. Experiment was performed in triplicate, and incubated for 2 hours in the dark prior to assay read in Perkin Elmer ViewLux ultra HTS microplate reader. FRET signal was measured by excitation at 340 nm and emission at 520 nm for fluorescein and 490 nm for terbium. Fold change over DMSO was calculated using GraphPad Prism Software (La Jolla, Calif.) by calculating 520 nm/490 nm ratio. Graphs were plotted as fold change of FRET signal for compound treatment over DMSO-only control.

$$$$
CHEMBL237519
Actelion Java MolfileCreator 2.0

  0  0  0  0  0  0              0 V3000
M  V30 BEGIN CTAB
M  V30 COUNTS 37 39 0 0 0
M  V30 BEGIN ATOM
M  V30 1 F 6.4951 1.5 0.0 0
M  V30 2 C 6.4951 0.0 0.0 0
M  V30 3 C 5.1961 -0.75 0.0 0
M  V30 4 C 7.7942 -0.75 0.0 0
M  V30 5 C 3.8971 0.0 0.0 0
M  V30 6 C 5.1961 -2.25 0.0 0
M  V30 7 C 7.7942 -2.25 0.0 0
M  V30 8 O 3.8971 1.5 0.0 0
M  V30 9 N 2.598 -0.75 0.0 0
M  V30 10 C 6.4951 -3.0 0.0 0
M  V30 11 C 9.0932 -3.0 0.0 0
M  V30 12 C 1.299 0.0 0.0 0
M  V30 13 F 9.8432 -1.7009 0.0 0
M  V30 14 F 10.3923 -3.75 0.0 0
M  V30 15 F 8.3432 -4.299 0.0 0
M  V30 16 C 0.0 -0.75 0.0 0
M  V30 17 C -1.299 0.0 0.0 0
M  V30 18 C 0.0 -2.25 0.0 0
M  V30 19 C -2.598 -0.75 0.0 0
M  V30 20 C -1.299 1.5 0.0 0
M  V30 21 C -1.299 -3.0 0.0 0
M  V30 22 C -2.598 -2.25 0.0 0
M  V30 23 O -1.299 -4.5 0.0 0
M  V30 24 C 0.0 -5.25 0.0 0
M  V30 25 C 0.0 -6.75 0.0 0
M  V30 26 C 1.299 -4.5 0.0 0
M  V30 27 C 1.299 -7.5 0.0 0
M  V30 28 C 2.598 -5.25 0.0 0
M  V30 29 C 2.598 -6.75 0.0 0
M  V30 30 C 1.299 -9.0 0.0 0
M  V30 31 O 3.8971 -7.5 0.0 0
M  V30 32 C 5.1961 -6.75 0.0 0
M  V30 33 C 6.4951 -7.5 0.0 0
M  V30 34 C 5.9461 -5.451 0.0 0
M  V30 35 C 4.4461 -5.451 0.0 0
M  V30 36 O 6.4951 -9.0 0.0 0
M  V30 37 O 7.7942 -6.75 0.0 0
M  V30 END ATOM
M  V30 BEGIN BOND
M  V30 1 1 1 2
M  V30 2 2 2 3
M  V30 3 1 2 4
M  V30 4 1 3 5
M  V30 5 1 3 6
M  V30 6 2 4 7
M  V30 7 2 5 8
M  V30 8 1 5 9
M  V30 9 2 6 10
M  V30 10 1 7 11
M  V30 11 1 9 12
M  V30 12 1 11 13
M  V30 13 1 11 14
M  V30 14 1 11 15
M  V30 15 1 12 16
M  V30 16 2 16 17
M  V30 17 1 16 18
M  V30 18 1 17 19
M  V30 19 1 17 20
M  V30 20 2 18 21
M  V30 21 2 19 22
M  V30 22 1 21 23
M  V30 23 1 23 24
M  V30 24 2 24 25
M  V30 25 1 24 26
M  V30 26 1 25 27
M  V30 27 2 26 28
M  V30 28 2 27 29
M  V30 29 1 27 30
M  V30 30 1 29 31
M  V30 31 1 31 32
M  V30 32 1 32 33
M  V30 33 1 32 34
M  V30 34 1 32 35
M  V30 35 2 33 36
M  V30 36 1 33 37
M  V30 37 1 7 10
M  V30 38 1 21 22
M  V30 39 1 28 29
M  V30 END BOND
M  V30 END CTAB
M  END
>  <Molecule ChEMBL ID>
CHEMBL237519

>  <Smiles>
Cc1ccc(Oc2ccc(OC(C)(C)C(=O)O)c(C)c2)cc1CNC(=O)c1ccc(C(F)(F)F)cc1F

>  <IC50_nM>
17

>  <Assay Description>
Displacement of [3H]2-methyl-2-(4-{3-{propyl-(5-pyridin-2-yl-thiophene-2-sulfonyl)-amino}-propyl}-phenoxy)-propionic acid from human PPARgamma

$$$$
CHEMBL392058
Actelion Java MolfileCreator 2.0

  0  0  0  0  0  0              0 V3000
M  V30 BEGIN CTAB
M  V30 COUNTS 35 37 0 0 0
M  V30 BEGIN ATOM
M  V30 1 F 9.8432 -1.7009 0.0 0
M  V30 2 C 9.0932 -3.0 0.0 0
M  V30 3 F 10.3923 -3.75 0.0 0
M  V30 4 F 8.3432 -4.299 0.0 0
M  V30 5 C 7.7942 -2.25 0.0 0
M  V30 6 C 7.7942 -0.75 0.0 0
M  V30 7 C 6.4951 -3.0 0.0 0
M  V30 8 C 6.4951 0.0 0.0 0
M  V30 9 C 5.1961 -2.25 0.0 0
M  V30 10 C 5.1961 -0.75 0.0 0
M  V30 11 C 3.8971 0.0 0.0 0
M  V30 12 O 3.8971 1.5 0.0 0
M  V30 13 N 2.598 -0.75 0.0 0
M  V30 14 C 1.299 0.0 0.0 0
M  V30 15 C 0.0 -0.75 0.0 0
M  V30 16 C -1.299 0.0 0.0 0
M  V30 17 C 0.0 -2.25 0.0 0
M  V30 18 C -2.598 -0.75 0.0 0
M  V30 19 C -1.299 -3.0 0.0 0
M  V30 20 O -3.8971 0.0 0.0 0
M  V30 21 C -2.598 -2.25 0.0 0
M  V30 22 C -5.1961 -0.75 0.0 0
M  V30 23 C -6.4951 0.0 0.0 0
M  V30 24 C -5.1961 -2.25 0.0 0
M  V30 25 C -7.7942 -0.75 0.0 0
M  V30 26 C -6.4951 -3.0 0.0 0
M  V30 27 C -7.7942 -2.25 0.0 0
M  V30 28 C -9.0932 0.0 0.0 0
M  V30 29 O -9.0932 -3.0 0.0 0
M  V30 30 C -9.0932 -4.5 0.0 0
M  V30 31 C -10.3923 -5.25 0.0 0
M  V30 32 C -8.3433 -5.799 0.0 0
M  V30 33 C -7.5933 -4.4999 0.0 0
M  V30 34 O -11.6913 -4.5 0.0 0
M  V30 35 O -10.3923 -6.75 0.0 0
M  V30 END ATOM
M  V30 BEGIN BOND
M  V30 1 1 1 2
M  V30 2 1 2 3
M  V30 3 1 2 4
M  V30 4 1 2 5
M  V30 5 2 5 6
M  V30 6 1 5 7
M  V30 7 1 6 8
M  V30 8 2 7 9
M  V30 9 2 8 10
M  V30 10 1 10 11
M  V30 11 2 11 12
M  V30 12 1 11 13
M  V30 13 1 13 14
M  V30 14 1 14 15
M  V30 15 2 15 16
M  V30 16 1 15 17
M  V30 17 1 16 18
M  V30 18 2 17 19
M  V30 19 1 18 20
M  V30 20 2 18 21
M  V30 21 1 20 22
M  V30 22 2 22 23
M  V30 23 1 22 24
M  V30 24 1 23 25
M  V30 25 2 24 26
M  V30 26 2 25 27
M  V30 27 1 25 28
M  V30 28 1 27 29
M  V30 29 1 29 30
M  V30 30 1 30 31
M  V30 31 1 30 32
M  V30 32 1 30 33
M  V30 33 2 31 34
M  V30 34 1 31 35
M  V30 35 1 9 10
M  V30 36 1 19 21
M  V30 37 1 26 27
M  V30 END BOND
M  V30 END CTAB
M  END
>  <Molecule ChEMBL ID>
CHEMBL392058

>  <Smiles>
Cc1cc(Oc2cccc(CNC(=O)c3ccc(C(F)(F)F)cc3)c2)ccc1OC(C)(C)C(=O)O

>  <IC50_nM>
17.99

>  <Assay Description>
Agonist activity at PPARgamma

$$$$
CHEMBL82034
Actelion Java MolfileCreator 2.0

  0  0  0  0  0  0              0 V3000
M  V30 BEGIN CTAB
M  V30 COUNTS 34 37 0 0 0
M  V30 BEGIN ATOM
M  V30 1 O 5.1961 -4.5 0.0 0
M  V30 2 C 5.1961 -3.4999 0.0 0
M  V30 3 O 4.3301 -2.9999 0.0 0
M  V30 4 C 6.0621 -3.0 0.0 0 CFG=1
M  V30 5 O 6.9282 -3.5 0.0 0
M  V30 6 C 6.0621 -1.9999 0.0 0
M  V30 7 C 6.0621 -4.0 0.0 0
M  V30 8 C 7.7942 -3.0 0.0 0
M  V30 9 C 5.1961 -1.4999 0.0 0
M  V30 10 C 7.7942 -2.0 0.0 0
M  V30 11 C 8.6602 -3.5 0.0 0
M  V30 12 C 5.1961 -0.5 0.0 0
M  V30 13 C 4.3301 -1.9999 0.0 0
M  V30 14 C 8.6602 -1.5 0.0 0
M  V30 15 C 9.5262 -3.0 0.0 0
M  V30 16 C 4.3301 0.0 0.0 0
M  V30 17 C 3.4641 -1.5 0.0 0
M  V30 18 C 9.5262 -2.0 0.0 0
M  V30 19 C 3.4641 -0.5 0.0 0
M  V30 20 O 2.598 0.0 0.0 0
M  V30 21 C 1.732 -0.5 0.0 0
M  V30 22 C 0.866 0.0 0.0 0
M  V30 23 C 0.0 -0.5 0.0 0
M  V30 24 N -0.9135 -0.0932 0.0 0
M  V30 25 C -0.1045 -1.4945 0.0 0
M  V30 26 C -1.5826 -0.8364 0.0 0
M  V30 27 O -1.0826 -1.7024 0.0 0
M  V30 28 C 0.6386 -2.1636 0.0 0
M  V30 29 C -2.5771 -0.7318 0.0 0
M  V30 30 C -2.9839 0.1816 0.0 0
M  V30 31 C -3.1649 -1.5408 0.0 0
M  V30 32 C -3.9784 0.2861 0.0 0
M  V30 33 C -4.1595 -1.4363 0.0 0
M  V30 34 C -4.5662 -0.5228 0.0 0
M  V30 END ATOM
M  V30 BEGIN BOND
M  V30 1 2 1 2
M  V30 2 1 2 3
M  V30 3 1 2 4
M  V30 4 1 4 5
M  V30 5 1 4 6
M  V30 6 1 4 7 CFG=1
M  V30 7 1 5 8
M  V30 8 1 6 9
M  V30 9 2 8 10
M  V30 10 1 8 11
M  V30 11 2 9 12
M  V30 12 1 9 13
M  V30 13 1 10 14
M  V30 14 2 11 15
M  V30 15 1 12 16
M  V30 16 2 13 17
M  V30 17 2 14 18
M  V30 18 2 16 19
M  V30 19 1 19 20
M  V30 20 1 20 21
M  V30 21 1 21 22
M  V30 22 1 22 23
M  V30 23 1 23 24
M  V30 24 2 23 25
M  V30 25 2 24 26
M  V30 26 1 25 27
M  V30 27 1 25 28
M  V30 28 1 26 29
M  V30 29 2 29 30
M  V30 30 1 29 31
M  V30 31 1 30 32
M  V30 32 2 31 33
M  V30 33 2 32 34
M  V30 34 1 15 18
M  V30 35 1 17 19
M  V30 36 1 26 27
M  V30 37 1 33 34
M  V30 END BOND
M  V30 BEGIN COLLECTION
M  V30 MDLV30/STERAC1 ATOMS=(1 4)
M  V30 END COLLECTION
M  V30 END CTAB
M  END
>  <Molecule ChEMBL ID>
CHEMBL82034

>  <Smiles>
Cc1oc(-c2ccccc2)nc1CCOc1ccc(CC(C)(Oc2ccccc2)C(=O)O)cc1

>  <IC50_nM>
17.99

>  <Assay Description>
Agonist activity at PPARgamma

$$$$
CHEMBL2037004
Actelion Java MolfileCreator 2.0

  0  0  0  0  0  0              0 V3000
M  V30 BEGIN CTAB
M  V30 COUNTS 35 37 0 0 0
M  V30 BEGIN ATOM
M  V30 1 O 5.1961 1.5 0.0 0
M  V30 2 C 6.0621 1.0 0.0 0
M  V30 3 C 6.0621 0.0 0.0 0
M  V30 4 C 6.9282 1.5 0.0 0
M  V30 5 C 5.1961 -0.5 0.0 0
M  V30 6 C 6.9282 -0.4999 0.0 0
M  V30 7 C 7.7942 0.9999 0.0 0
M  V30 8 C 6.9282 2.4999 0.0 0
M  V30 9 O 4.3301 0.0 0.0 0
M  V30 10 C 5.1961 -1.4999 0.0 0
M  V30 11 C 6.9282 -1.4999 0.0 0
M  V30 12 C 8.6602 1.4999 0.0 0
M  V30 13 C 7.7942 2.9999 0.0 0
M  V30 14 C 3.4641 -0.5 0.0 0 CFG=1
M  V30 15 C 6.0621 -1.9999 0.0 0
M  V30 16 C 7.7942 -1.9999 0.0 0
M  V30 17 C 8.6602 2.4999 0.0 0
M  V30 18 C 2.598 0.0 0.0 0
M  V30 19 C 3.4641 -1.5 0.0 0
M  V30 20 C 8.6602 -1.4999 0.0 0
M  V30 21 C 1.732 -0.5 0.0 0
M  V30 22 C 4.3301 -2.0 0.0 0
M  V30 23 O 0.866 0.0 0.0 0
M  V30 24 C 0.0 -0.5 0.0 0
M  V30 25 C -0.866 0.0 0.0 0
M  V30 26 C 0.0 -1.4999 0.0 0
M  V30 27 C -1.732 -0.4999 0.0 0
M  V30 28 C -0.866 -1.9999 0.0 0
M  V30 29 C -1.732 -1.4999 0.0 0
M  V30 30 C -2.598 0.0 0.0 0
M  V30 31 C -2.598 -1.9999 0.0 0
M  V30 32 C -2.598 -2.9999 0.0 0
M  V30 33 C -3.4641 -3.4999 0.0 0
M  V30 34 O -4.3301 -2.9999 0.0 0
M  V30 35 O -3.4641 -4.4999 0.0 0
M  V30 END ATOM
M  V30 BEGIN BOND
M  V30 1 2 1 2
M  V30 2 1 2 3
M  V30 3 1 2 4
M  V30 4 2 3 5
M  V30 5 1 3 6
M  V30 6 2 4 7
M  V30 7 1 4 8
M  V30 8 1 5 9
M  V30 9 1 5 10
M  V30 10 2 6 11
M  V30 11 1 7 12
M  V30 12 2 8 13
M  V30 13 1 14 9 CFG=3
M  V30 14 2 10 15
M  V30 15 1 11 16
M  V30 16 2 12 17
M  V30 17 1 14 18
M  V30 18 1 14 19
M  V30 19 1 16 20
M  V30 20 1 18 21
M  V30 21 1 19 22
M  V30 22 1 21 23
M  V30 23 1 23 24
M  V30 24 2 24 25
M  V30 25 1 24 26
M  V30 26 1 25 27
M  V30 27 2 26 28
M  V30 28 2 27 29
M  V30 29 1 27 30
M  V30 30 1 29 31
M  V30 31 1 31 32
M  V30 32 1 32 33
M  V30 33 2 33 34
M  V30 34 1 33 35
M  V30 35 1 11 15
M  V30 36 1 13 17
M  V30 37 1 28 29
M  V30 END BOND
M  V30 BEGIN COLLECTION
M  V30 MDLV30/STEABS ATOMS=(1 14)
M  V30 END COLLECTION
M  V30 END CTAB
M  END
>  <Molecule ChEMBL ID>
CHEMBL2037004

>  <Smiles>
CCc1ccc(O[C@H](CC)CCOc2ccc(CCC(=O)O)c(C)c2)c(C(=O)c2ccccc2)c1

>  <IC50_nM>
17.99

>  <Assay Description>
Agonist activity at PPARgamma

$$$$
CHEMBL602263
Actelion Java MolfileCreator 2.0

  0  0  0  0  0  0              0 V3000
M  V30 BEGIN CTAB
M  V30 COUNTS 38 42 0 0 0
M  V30 BEGIN ATOM
M  V30 1 O 11.1837 5.7369 0.0 0
M  V30 2 C 10.8747 4.7859 0.0 0
M  V30 3 O 9.8965 4.578 0.0 0
M  V30 4 C 11.5438 4.0427 0.0 0
M  V30 5 C 11.2348 3.0917 0.0 0
M  V30 6 C 12.522 4.2506 0.0 0
M  V30 7 C 10.2566 2.8838 0.0 0
M  V30 8 C 11.9039 2.3485 0.0 0
M  V30 9 C 13.1911 3.5075 0.0 0
M  V30 10 C 9.5875 3.6269 0.0 0
M  V30 11 C 9.9476 1.9327 0.0 0
M  V30 12 C 12.8821 2.5564 0.0 0
M  V30 13 C 8.6094 3.419 0.0 0
M  V30 14 C 8.9695 1.7248 0.0 0
M  V30 15 C 8.3003 2.4679 0.0 0
M  V30 16 C 7.3222 2.26 0.0 0
M  V30 17 N 7.0132 1.309 0.0 0
M  V30 18 C 6.0621 0.9999 0.0 0
M  V30 19 C 7.601 0.5 0.0 0
M  V30 20 C 6.0621 0.0 0.0 0
M  V30 21 C 5.1961 1.4999 0.0 0
M  V30 22 C 7.0132 -0.309 0.0 0
M  V30 23 C 8.601 0.5 0.0 0
M  V30 24 C 5.1961 -0.5 0.0 0
M  V30 25 C 4.3301 0.9999 0.0 0
M  V30 26 C 4.3301 0.0 0.0 0
M  V30 27 C 3.4641 -0.5 0.0 0
M  V30 28 O 3.4641 -1.5 0.0 0
M  V30 29 N 2.598 0.0 0.0 0
M  V30 30 C 1.732 -0.5 0.0 0 CFG=2
M  V30 31 C 1.732 -1.5 0.0 0
M  V30 32 C 0.866 0.0 0.0 0
M  V30 33 C 0.866 -1.9999 0.0 0
M  V30 34 C 2.598 -2.0 0.0 0
M  V30 35 C 0.0 -0.5 0.0 0
M  V30 36 C 0.866 -2.9999 0.0 0
M  V30 37 C 2.598 -3.0 0.0 0
M  V30 38 C 1.732 -3.5 0.0 0
M  V30 END ATOM
M  V30 BEGIN BOND
M  V30 1 2 1 2
M  V30 2 1 2 3
M  V30 3 1 2 4
M  V30 4 2 4 5
M  V30 5 1 4 6
M  V30 6 1 5 7
M  V30 7 1 5 8
M  V30 8 2 6 9
M  V30 9 2 7 10
M  V30 10 1 7 11
M  V30 11 2 8 12
M  V30 12 1 10 13
M  V30 13 2 11 14
M  V30 14 2 13 15
M  V30 15 1 15 16
M  V30 16 1 16 17
M  V30 17 1 17 18
M  V30 18 1 17 19
M  V30 19 2 18 20
M  V30 20 1 18 21
M  V30 21 2 19 22
M  V30 22 1 19 23
M  V30 23 1 20 24
M  V30 24 2 21 25
M  V30 25 2 24 26
M  V30 26 1 26 27
M  V30 27 2 27 28
M  V30 28 1 27 29
M  V30 29 1 30 29 CFG=3
M  V30 30 1 30 31
M  V30 31 1 30 32
M  V30 32 2 31 33
M  V30 33 1 31 34
M  V30 34 1 32 35
M  V30 35 1 33 36
M  V30 36 2 34 37
M  V30 37 2 36 38
M  V30 38 1 9 12
M  V30 39 1 14 15
M  V30 40 1 20 22
M  V30 41 1 25 26
M  V30 42 1 37 38
M  V30 END BOND
M  V30 BEGIN COLLECTION
M  V30 MDLV30/STERAC1 ATOMS=(1 30)
M  V30 END COLLECTION
M  V30 END CTAB
M  END
>  <Molecule ChEMBL ID>
CHEMBL602263

>  <Smiles>
CCC(NC(=O)c1ccc2c(c1)cc(C)n2Cc1ccc(-c2ccccc2C(=O)O)cc1)c1ccccc1

>  <IC50_nM>
18

>  <Assay Description>
Displacement of radiolabeled ((5-{4-[Methyl-pyridin-2yl-amino)-ethoxy]-benzyl}-thiazolidine-2,4-dione) from human PPARgamma ligand binding domain expressed in Escherichia coli

$$$$
CHEMBL82034
Actelion Java MolfileCreator 2.0

  0  0  0  0  0  0              0 V3000
M  V30 BEGIN CTAB
M  V30 COUNTS 34 37 0 0 0
M  V30 BEGIN ATOM
M  V30 1 O 5.1961 -4.5 0.0 0
M  V30 2 C 5.1961 -3.4999 0.0 0
M  V30 3 O 4.3301 -2.9999 0.0 0
M  V30 4 C 6.0621 -3.0 0.0 0 CFG=1
M  V30 5 O 6.9282 -3.5 0.0 0
M  V30 6 C 6.0621 -1.9999 0.0 0
M  V30 7 C 6.0621 -4.0 0.0 0
M  V30 8 C 7.7942 -3.0 0.0 0
M  V30 9 C 5.1961 -1.4999 0.0 0
M  V30 10 C 7.7942 -2.0 0.0 0
M  V30 11 C 8.6602 -3.5 0.0 0
M  V30 12 C 5.1961 -0.5 0.0 0
M  V30 13 C 4.3301 -1.9999 0.0 0
M  V30 14 C 8.6602 -1.5 0.0 0
M  V30 15 C 9.5262 -3.0 0.0 0
M  V30 16 C 4.3301 0.0 0.0 0
M  V30 17 C 3.4641 -1.5 0.0 0
M  V30 18 C 9.5262 -2.0 0.0 0
M  V30 19 C 3.4641 -0.5 0.0 0
M  V30 20 O 2.598 0.0 0.0 0
M  V30 21 C 1.732 -0.5 0.0 0
M  V30 22 C 0.866 0.0 0.0 0
M  V30 23 C 0.0 -0.5 0.0 0
M  V30 24 N -0.9135 -0.0932 0.0 0
M  V30 25 C -0.1045 -1.4945 0.0 0
M  V30 26 C -1.5826 -0.8364 0.0 0
M  V30 27 O -1.0826 -1.7024 0.0 0
M  V30 28 C 0.6386 -2.1636 0.0 0
M  V30 29 C -2.5771 -0.7318 0.0 0
M  V30 30 C -2.9839 0.1816 0.0 0
M  V30 31 C -3.1649 -1.5408 0.0 0
M  V30 32 C -3.9784 0.2861 0.0 0
M  V30 33 C -4.1595 -1.4363 0.0 0
M  V30 34 C -4.5662 -0.5228 0.0 0
M  V30 END ATOM
M  V30 BEGIN BOND
M  V30 1 2 1 2
M  V30 2 1 2 3
M  V30 3 1 2 4
M  V30 4 1 4 5
M  V30 5 1 4 6
M  V30 6 1 4 7 CFG=1
M  V30 7 1 5 8
M  V30 8 1 6 9
M  V30 9 2 8 10
M  V30 10 1 8 11
M  V30 11 2 9 12
M  V30 12 1 9 13
M  V30 13 1 10 14
M  V30 14 2 11 15
M  V30 15 1 12 16
M  V30 16 2 13 17
M  V30 17 2 14 18
M  V30 18 2 16 19
M  V30 19 1 19 20
M  V30 20 1 20 21
M  V30 21 1 21 22
M  V30 22 1 22 23
M  V30 23 1 23 24
M  V30 24 2 23 25
M  V30 25 2 24 26
M  V30 26 1 25 27
M  V30 27 1 25 28
M  V30 28 1 26 29
M  V30 29 2 29 30
M  V30 30 1 29 31
M  V30 31 1 30 32
M  V30 32 2 31 33
M  V30 33 2 32 34
M  V30 34 1 15 18
M  V30 35 1 17 19
M  V30 36 1 26 27
M  V30 37 1 33 34
M  V30 END BOND
M  V30 BEGIN COLLECTION
M  V30 MDLV30/STERAC1 ATOMS=(1 4)
M  V30 END COLLECTION
M  V30 END CTAB
M  END
>  <Molecule ChEMBL ID>
CHEMBL82034

>  <Smiles>
Cc1oc(-c2ccccc2)nc1CCOc1ccc(CC(C)(Oc2ccccc2)C(=O)O)cc1

>  <IC50_nM>
18

>  <Assay Description>
Agonist activity at PPARgamma

$$$$
CHEMBL82034
Actelion Java MolfileCreator 2.0

  0  0  0  0  0  0              0 V3000
M  V30 BEGIN CTAB
M  V30 COUNTS 34 37 0 0 0
M  V30 BEGIN ATOM
M  V30 1 O 5.1961 -4.5 0.0 0
M  V30 2 C 5.1961 -3.4999 0.0 0
M  V30 3 O 4.3301 -2.9999 0.0 0
M  V30 4 C 6.0621 -3.0 0.0 0 CFG=1
M  V30 5 O 6.9282 -3.5 0.0 0
M  V30 6 C 6.0621 -1.9999 0.0 0
M  V30 7 C 6.0621 -4.0 0.0 0
M  V30 8 C 7.7942 -3.0 0.0 0
M  V30 9 C 5.1961 -1.4999 0.0 0
M  V30 10 C 7.7942 -2.0 0.0 0
M  V30 11 C 8.6602 -3.5 0.0 0
M  V30 12 C 5.1961 -0.5 0.0 0
M  V30 13 C 4.3301 -1.9999 0.0 0
M  V30 14 C 8.6602 -1.5 0.0 0
M  V30 15 C 9.5262 -3.0 0.0 0
M  V30 16 C 4.3301 0.0 0.0 0
M  V30 17 C 3.4641 -1.5 0.0 0
M  V30 18 C 9.5262 -2.0 0.0 0
M  V30 19 C 3.4641 -0.5 0.0 0
M  V30 20 O 2.598 0.0 0.0 0
M  V30 21 C 1.732 -0.5 0.0 0
M  V30 22 C 0.866 0.0 0.0 0
M  V30 23 C 0.0 -0.5 0.0 0
M  V30 24 N -0.9135 -0.0932 0.0 0
M  V30 25 C -0.1045 -1.4945 0.0 0
M  V30 26 C -1.5826 -0.8364 0.0 0
M  V30 27 O -1.0826 -1.7024 0.0 0
M  V30 28 C 0.6386 -2.1636 0.0 0
M  V30 29 C -2.5771 -0.7318 0.0 0
M  V30 30 C -2.9839 0.1816 0.0 0
M  V30 31 C -3.1649 -1.5408 0.0 0
M  V30 32 C -3.9784 0.2861 0.0 0
M  V30 33 C -4.1595 -1.4363 0.0 0
M  V30 34 C -4.5662 -0.5228 0.0 0
M  V30 END ATOM
M  V30 BEGIN BOND
M  V30 1 2 1 2
M  V30 2 1 2 3
M  V30 3 1 2 4
M  V30 4 1 4 5
M  V30 5 1 4 6
M  V30 6 1 4 7 CFG=1
M  V30 7 1 5 8
M  V30 8 1 6 9
M  V30 9 2 8 10
M  V30 10 1 8 11
M  V30 11 2 9 12
M  V30 12 1 9 13
M  V30 13 1 10 14
M  V30 14 2 11 15
M  V30 15 1 12 16
M  V30 16 2 13 17
M  V30 17 2 14 18
M  V30 18 2 16 19
M  V30 19 1 19 20
M  V30 20 1 20 21
M  V30 21 1 21 22
M  V30 22 1 22 23
M  V30 23 1 23 24
M  V30 24 2 23 25
M  V30 25 2 24 26
M  V30 26 1 25 27
M  V30 27 1 25 28
M  V30 28 1 26 29
M  V30 29 2 29 30
M  V30 30 1 29 31
M  V30 31 1 30 32
M  V30 32 2 31 33
M  V30 33 2 32 34
M  V30 34 1 15 18
M  V30 35 1 17 19
M  V30 36 1 26 27
M  V30 37 1 33 34
M  V30 END BOND
M  V30 BEGIN COLLECTION
M  V30 MDLV30/STERAC1 ATOMS=(1 4)
M  V30 END COLLECTION
M  V30 END CTAB
M  END
>  <Molecule ChEMBL ID>
CHEMBL82034

>  <Smiles>
Cc1oc(-c2ccccc2)nc1CCOc1ccc(CC(C)(Oc2ccccc2)C(=O)O)cc1

>  <IC50_nM>
18

>  <Assay Description>
Binding affinity towards peroxisome proliferator activated receptor gamma

$$$$
CHEMBL2331771
Actelion Java MolfileCreator 2.0

  0  0  0  0  0  0              0 V3000
M  V30 BEGIN CTAB
M  V30 COUNTS 28 30 0 0 0
M  V30 BEGIN ATOM
M  V30 1 Cl 7.7942 -0.75 0.0 0
M  V30 2 C 6.4952 0.0 0.0 0
M  V30 3 C 6.4952 1.5 0.0 0
M  V30 4 C 5.1961 -0.75 0.0 0
M  V30 5 O 7.7942 2.25 0.0 0
M  V30 6 C 5.1961 2.25 0.0 0
M  V30 7 C 3.8971 0.0 0.0 0
M  V30 8 C 7.7942 3.75 0.0 0
M  V30 9 F 5.1961 3.75 0.0 0
M  V30 10 C 3.8971 1.5 0.0 0
M  V30 11 N 2.598 -0.75 0.0 0
M  V30 12 C 9.0932 4.5 0.0 0
M  V30 13 C 6.4952 4.5 0.0 0
M  V30 14 S 1.299 0.0 0.0 0
M  V30 15 N 9.0932 6.0 0.0 0
M  V30 16 C 6.4952 6.0 0.0 0
M  V30 17 O 2.049 1.299 0.0 0
M  V30 18 O 0.549 1.299 0.0 0
M  V30 19 C 0.0 -0.75 0.0 0
M  V30 20 C 7.7942 6.75 0.0 0
M  V30 21 Cl 5.1961 6.75 0.0 0
M  V30 22 C -1.299 0.0 0.0 0
M  V30 23 C 0.0 -2.25 0.0 0
M  V30 24 Cl -1.299 1.5 0.0 0
M  V30 25 C -2.598 -0.75 0.0 0
M  V30 26 C -1.299 -3.0 0.0 0
M  V30 27 C -2.598 -2.25 0.0 0
M  V30 28 Cl -3.8971 -3.0 0.0 0
M  V30 END ATOM
M  V30 BEGIN BOND
M  V30 1 1 1 2
M  V30 2 2 2 3
M  V30 3 1 2 4
M  V30 4 1 3 5
M  V30 5 1 3 6
M  V30 6 2 4 7
M  V30 7 1 5 8
M  V30 8 1 6 9
M  V30 9 2 6 10
M  V30 10 1 7 11
M  V30 11 2 8 12
M  V30 12 1 8 13
M  V30 13 1 11 14
M  V30 14 1 12 15
M  V30 15 2 13 16
M  V30 16 2 14 17
M  V30 17 2 14 18
M  V30 18 1 14 19
M  V30 19 2 15 20
M  V30 20 1 16 21
M  V30 21 2 19 22
M  V30 22 1 19 23
M  V30 23 1 22 24
M  V30 24 1 22 25
M  V30 25 2 23 26
M  V30 26 2 25 27
M  V30 27 1 27 28
M  V30 28 1 7 10
M  V30 29 1 16 20
M  V30 30 1 26 27
M  V30 END BOND
M  V30 END CTAB
M  END
>  <Molecule ChEMBL ID>
CHEMBL2331771

>  <Smiles>
O=S(=O)(Nc1cc(F)c(Oc2cncc(Cl)c2)c(Cl)c1)c1ccc(Cl)cc1Cl

>  <IC50_nM>
18

>  <Assay Description>
Displacement of [3H]-rosiglitazone from GST-tagged PPARgammaLBD (unknown origin) after 1 hr by scintillation proximity assay

$$$$
CHEMBL198266
Actelion Java MolfileCreator 2.0

  0  0  0  0  0  0              0 V3000
M  V30 BEGIN CTAB
M  V30 COUNTS 36 39 0 0 0
M  V30 BEGIN ATOM
M  V30 1 F 5.821 -4.3394 0.0 0
M  V30 2 C 4.8699 -4.6484 0.0 0
M  V30 3 F 5.1789 -5.5995 0.0 0
M  V30 4 F 3.9189 -4.9574 0.0 0
M  V30 5 C 4.5609 -3.6974 0.0 0
M  V30 6 C 5.23 -2.9542 0.0 0
M  V30 7 C 3.5828 -3.4895 0.0 0
M  V30 8 C 4.921 -2.0032 0.0 0
M  V30 9 C 3.2737 -2.5384 0.0 0
M  V30 10 O 5.5902 -1.26 0.0 0
M  V30 11 C 3.9429 -1.7953 0.0 0
M  V30 12 C 5.2811 -0.309 0.0 0
M  V30 13 C 5.8689 0.5 0.0 0
M  V30 14 C 4.3301 0.0 0.0 0
M  V30 15 N 5.2811 1.309 0.0 0
M  V30 16 C 6.8689 0.5 0.0 0
M  V30 17 C 4.3301 1.0 0.0 0
M  V30 18 C 3.4641 -0.4999 0.0 0
M  V30 19 C 5.5902 2.26 0.0 0
M  V30 20 O 7.3689 -0.366 0.0 0
M  V30 21 O 7.3689 1.366 0.0 0
M  V30 22 C 3.4641 1.5 0.0 0
M  V30 23 C 2.598 0.0 0.0 0
M  V30 24 C 6.5683 2.4679 0.0 0
M  V30 25 C 4.921 3.0032 0.0 0
M  V30 26 C 2.598 0.9999 0.0 0
M  V30 27 O 1.732 -0.5 0.0 0
M  V30 28 C 6.8773 3.419 0.0 0
M  V30 29 C 5.23 3.9542 0.0 0
M  V30 30 C 0.866 0.0 0.0 0
M  V30 31 C 6.2082 4.1621 0.0 0
M  V30 32 C 0.0 -0.5 0.0 0
M  V30 33 C 6.5172 5.1132 0.0 0
M  V30 34 C 5.5661 5.4222 0.0 0
M  V30 35 C 6.8262 6.0642 0.0 0
M  V30 36 C 7.4683 4.8042 0.0 0
M  V30 END ATOM
M  V30 BEGIN BOND
M  V30 1 1 1 2
M  V30 2 1 2 3
M  V30 3 1 2 4
M  V30 4 1 2 5
M  V30 5 2 5 6
M  V30 6 1 5 7
M  V30 7 1 6 8
M  V30 8 2 7 9
M  V30 9 1 8 10
M  V30 10 2 8 11
M  V30 11 1 10 12
M  V30 12 2 12 13
M  V30 13 1 12 14
M  V30 14 1 13 15
M  V30 15 1 13 16
M  V30 16 2 14 17
M  V30 17 1 14 18
M  V30 18 1 15 19
M  V30 19 2 16 20
M  V30 20 1 16 21
M  V30 21 1 17 22
M  V30 22 2 18 23
M  V30 23 2 19 24
M  V30 24 1 19 25
M  V30 25 2 22 26
M  V30 26 1 23 27
M  V30 27 1 24 28
M  V30 28 2 25 29
M  V30 29 1 27 30
M  V30 30 2 28 31
M  V30 31 1 30 32
M  V30 32 1 31 33
M  V30 33 1 33 34
M  V30 34 1 33 35
M  V30 35 1 33 36
M  V30 36 1 9 11
M  V30 37 1 15 17
M  V30 38 1 23 26
M  V30 39 1 29 31
M  V30 END BOND
M  V30 END CTAB
M  END
>  <Molecule ChEMBL ID>
CHEMBL198266

>  <Smiles>
CCOc1ccc2c(c1)c(Oc1cccc(C(F)(F)F)c1)c(C(=O)O)n2-c1ccc(C(C)(C)C)cc1

>  <IC50_nM>
18

>  <Assay Description>
Inhibitory concentration against human peroxisome proliferator activated receptor gamma in SPA assay

$$$$
CHEMBL602670
Actelion Java MolfileCreator 2.0

  0  0  0  0  0  0              0 V3000
M  V30 BEGIN CTAB
M  V30 COUNTS 39 43 0 0 0
M  V30 BEGIN ATOM
M  V30 1 O 13.5913 -3.5669 0.0 0
M  V30 2 C 12.6131 -3.7748 0.0 0
M  V30 3 O 11.944 -3.0316 0.0 0
M  V30 4 C 12.3041 -4.7258 0.0 0
M  V30 5 C 11.326 -4.9337 0.0 0
M  V30 6 C 12.9732 -5.469 0.0 0
M  V30 7 C 10.6568 -4.1906 0.0 0
M  V30 8 C 11.017 -5.8848 0.0 0
M  V30 9 C 12.6642 -6.42 0.0 0
M  V30 10 C 10.9659 -3.2395 0.0 0
M  V30 11 C 9.6787 -4.3985 0.0 0
M  V30 12 C 11.6861 -6.6279 0.0 0
M  V30 13 C 10.2967 -2.4964 0.0 0
M  V30 14 C 9.0096 -3.6554 0.0 0
M  V30 15 C 9.3186 -2.7043 0.0 0
M  V30 16 C 8.6494 -1.9612 0.0 0
M  V30 17 N 7.6713 -2.1691 0.0 0
M  V30 18 C 6.9282 -1.4999 0.0 0
M  V30 19 C 7.2646 -3.0826 0.0 0
M  V30 20 C 6.0621 -2.0 0.0 0
M  V30 21 C 6.9282 -0.5 0.0 0
M  V30 22 C 6.27 -2.9781 0.0 0
M  V30 23 C 7.7646 -3.9487 0.0 0
M  V30 24 C 5.1961 -1.5 0.0 0
M  V30 25 C 6.0621 0.0 0.0 0
M  V30 26 C 5.6009 -3.7212 0.0 0
M  V30 27 C 5.1961 -0.5 0.0 0
M  V30 28 C 4.3301 0.0 0.0 0
M  V30 29 O 4.3301 1.0 0.0 0
M  V30 30 N 3.4641 -0.5 0.0 0
M  V30 31 C 2.598 0.0 0.0 0
M  V30 32 C 1.732 -0.5 0.0 0
M  V30 33 C 0.866 0.0 0.0 0
M  V30 34 C 0.0 -0.5 0.0 0
M  V30 35 C -0.866 0.0 0.0 0
M  V30 36 C 0.0 -1.4999 0.0 0
M  V30 37 C -1.732 -0.4999 0.0 0
M  V30 38 C -0.866 -1.9999 0.0 0
M  V30 39 C -1.732 -1.4999 0.0 0
M  V30 END ATOM
M  V30 BEGIN BOND
M  V30 1 2 1 2
M  V30 2 1 2 3
M  V30 3 1 2 4
M  V30 4 2 4 5
M  V30 5 1 4 6
M  V30 6 1 5 7
M  V30 7 1 5 8
M  V30 8 2 6 9
M  V30 9 2 7 10
M  V30 10 1 7 11
M  V30 11 2 8 12
M  V30 12 1 10 13
M  V30 13 2 11 14
M  V30 14 2 13 15
M  V30 15 1 15 16
M  V30 16 1 16 17
M  V30 17 1 17 18
M  V30 18 1 17 19
M  V30 19 2 18 20
M  V30 20 1 18 21
M  V30 21 2 19 22
M  V30 22 1 19 23
M  V30 23 1 20 24
M  V30 24 2 21 25
M  V30 25 1 22 26
M  V30 26 2 24 27
M  V30 27 1 27 28
M  V30 28 2 28 29
M  V30 29 1 28 30
M  V30 30 1 30 31
M  V30 31 1 31 32
M  V30 32 1 32 33
M  V30 33 1 33 34
M  V30 34 2 34 35
M  V30 35 1 34 36
M  V30 36 1 35 37
M  V30 37 2 36 38
M  V30 38 2 37 39
M  V30 39 1 9 12
M  V30 40 1 14 15
M  V30 41 1 20 22
M  V30 42 1 25 27
M  V30 43 1 38 39
M  V30 END BOND
M  V30 END CTAB
M  END
>  <Molecule ChEMBL ID>
CHEMBL602670

>  <Smiles>
Cc1c(C)n(Cc2ccc(-c3ccccc3C(=O)O)cc2)c2ccc(C(=O)NCCCc3ccccc3)cc12

>  <IC50_nM>
18

>  <Assay Description>
Displacement of radiolabeled ((5-{4-[Methyl-pyridin-2yl-amino)-ethoxy]-benzyl}-thiazolidine-2,4-dione) from human PPARgamma ligand binding domain expressed in Escherichia coli

$$$$
CHEMBL215127
Actelion Java MolfileCreator 2.0

  0  0  0  0  0  0              0 V3000
M  V30 BEGIN CTAB
M  V30 COUNTS 35 37 0 0 0
M  V30 BEGIN ATOM
M  V30 1 O 5.1961 1.5 0.0 0
M  V30 2 C 6.0621 1.0 0.0 0
M  V30 3 C 6.0621 0.0 0.0 0
M  V30 4 C 6.9282 1.5 0.0 0
M  V30 5 C 5.1961 -0.5 0.0 0
M  V30 6 C 6.9282 -0.4999 0.0 0
M  V30 7 C 7.7942 0.9999 0.0 0
M  V30 8 C 6.9282 2.4999 0.0 0
M  V30 9 O 4.3301 0.0 0.0 0
M  V30 10 C 5.1961 -1.4999 0.0 0
M  V30 11 C 6.9282 -1.4999 0.0 0
M  V30 12 C 8.6602 1.4999 0.0 0
M  V30 13 C 7.7942 2.9999 0.0 0
M  V30 14 C 3.4641 -0.5 0.0 0 CFG=2
M  V30 15 C 6.0621 -1.9999 0.0 0
M  V30 16 C 7.7942 -1.9999 0.0 0
M  V30 17 C 8.6602 2.4999 0.0 0
M  V30 18 C 2.598 0.0 0.0 0
M  V30 19 C 3.4641 -1.5 0.0 0
M  V30 20 C 8.6602 -1.4999 0.0 0
M  V30 21 C 1.732 -0.5 0.0 0
M  V30 22 C 4.3301 -2.0 0.0 0
M  V30 23 O 0.866 0.0 0.0 0
M  V30 24 C 0.0 -0.5 0.0 0
M  V30 25 C -0.866 0.0 0.0 0
M  V30 26 C 0.0 -1.4999 0.0 0
M  V30 27 C -1.732 -0.4999 0.0 0
M  V30 28 C -0.866 -1.9999 0.0 0
M  V30 29 C -1.732 -1.4999 0.0 0
M  V30 30 C -2.598 0.0 0.0 0
M  V30 31 C -2.598 -1.9999 0.0 0
M  V30 32 C -2.598 -2.9999 0.0 0
M  V30 33 C -3.4641 -3.4999 0.0 0
M  V30 34 O -4.3301 -2.9999 0.0 0
M  V30 35 O -3.4641 -4.4999 0.0 0
M  V30 END ATOM
M  V30 BEGIN BOND
M  V30 1 2 1 2
M  V30 2 1 2 3
M  V30 3 1 2 4
M  V30 4 2 3 5
M  V30 5 1 3 6
M  V30 6 2 4 7
M  V30 7 1 4 8
M  V30 8 1 5 9
M  V30 9 1 5 10
M  V30 10 2 6 11
M  V30 11 1 7 12
M  V30 12 2 8 13
M  V30 13 1 14 9 CFG=1
M  V30 14 2 10 15
M  V30 15 1 11 16
M  V30 16 2 12 17
M  V30 17 1 14 18
M  V30 18 1 14 19
M  V30 19 1 16 20
M  V30 20 1 18 21
M  V30 21 1 19 22
M  V30 22 1 21 23
M  V30 23 1 23 24
M  V30 24 2 24 25
M  V30 25 1 24 26
M  V30 26 1 25 27
M  V30 27 2 26 28
M  V30 28 2 27 29
M  V30 29 1 27 30
M  V30 30 1 29 31
M  V30 31 1 31 32
M  V30 32 1 32 33
M  V30 33 2 33 34
M  V30 34 1 33 35
M  V30 35 1 11 15
M  V30 36 1 13 17
M  V30 37 1 28 29
M  V30 END BOND
M  V30 BEGIN COLLECTION
M  V30 MDLV30/STERAC1 ATOMS=(1 14)
M  V30 END COLLECTION
M  V30 END CTAB
M  END
>  <Molecule ChEMBL ID>
CHEMBL215127

>  <Smiles>
CCc1ccc(OC(CC)CCOc2ccc(CCC(=O)O)c(C)c2)c(C(=O)c2ccccc2)c1

>  <IC50_nM>
18

>  <Assay Description>
Displacement of [3H]2-methyl-2-(4-{3-[propyl-(5-pyridin-2-yl-thiophene-2-sulfonyl)-amino]-propyl}-phenoxy)-propionic acid from human PPARgamma by SPA

$$$$
CHEMBL198091
Actelion Java MolfileCreator 2.0

  0  0  0  0  0  0              0 V3000
M  V30 BEGIN CTAB
M  V30 COUNTS 38 41 0 0 0
M  V30 BEGIN ATOM
M  V30 1 F 1.3174 -5.4608 0.0 0
M  V30 2 C 0.5743 -4.7917 0.0 0
M  V30 3 F -0.0947 -5.5349 0.0 0
M  V30 4 F -0.1687 -4.1226 0.0 0
M  V30 5 C 1.2434 -4.0486 0.0 0
M  V30 6 C 2.2216 -4.2565 0.0 0
M  V30 7 C 0.9344 -3.0975 0.0 0
M  V30 8 C 2.8907 -3.5133 0.0 0
M  V30 9 C 1.6035 -2.3544 0.0 0
M  V30 10 O 3.8689 -3.7212 0.0 0
M  V30 11 C 2.5817 -2.5623 0.0 0
M  V30 12 C 4.538 -2.9781 0.0 0
M  V30 13 C 5.5325 -3.0826 0.0 0
M  V30 14 C 4.3301 -1.9999 0.0 0
M  V30 15 N 5.9392 -2.1691 0.0 0
M  V30 16 C 6.0325 -3.9487 0.0 0
M  V30 17 C 5.1961 -1.4999 0.0 0
M  V30 18 C 3.4641 -1.5 0.0 0
M  V30 19 C 6.9174 -1.9612 0.0 0
M  V30 20 O 5.5325 -4.8147 0.0 0
M  V30 21 O 7.0325 -3.9487 0.0 0
M  V30 22 C 5.1961 -0.4999 0.0 0
M  V30 23 C 3.4641 -0.5 0.0 0
M  V30 24 C 7.5865 -2.7043 0.0 0
M  V30 25 C 7.2264 -1.0101 0.0 0
M  V30 26 C 4.3301 0.0 0.0 0
M  V30 27 O 2.598 0.0 0.0 0
M  V30 28 C 8.5647 -2.4964 0.0 0
M  V30 29 C 8.2046 -0.8022 0.0 0
M  V30 30 C 1.732 -0.5 0.0 0
M  V30 31 C 8.8737 -1.5453 0.0 0
M  V30 32 C 0.866 0.0 0.0 0
M  V30 33 C 9.8518 -1.3374 0.0 0
M  V30 34 C 0.866 1.0 0.0 0
M  V30 35 C 0.0 -0.5 0.0 0
M  V30 36 C 9.6439 -0.3593 0.0 0
M  V30 37 C 10.83 -1.1295 0.0 0
M  V30 38 C 10.0597 -2.3156 0.0 0
M  V30 END ATOM
M  V30 BEGIN BOND
M  V30 1 1 1 2
M  V30 2 1 2 3
M  V30 3 1 2 4
M  V30 4 1 2 5
M  V30 5 2 5 6
M  V30 6 1 5 7
M  V30 7 1 6 8
M  V30 8 2 7 9
M  V30 9 1 8 10
M  V30 10 2 8 11
M  V30 11 1 10 12
M  V30 12 2 12 13
M  V30 13 1 12 14
M  V30 14 1 13 15
M  V30 15 1 13 16
M  V30 16 2 14 17
M  V30 17 1 14 18
M  V30 18 1 15 19
M  V30 19 2 16 20
M  V30 20 1 16 21
M  V30 21 1 17 22
M  V30 22 2 18 23
M  V30 23 2 19 24
M  V30 24 1 19 25
M  V30 25 2 22 26
M  V30 26 1 23 27
M  V30 27 1 24 28
M  V30 28 2 25 29
M  V30 29 1 27 30
M  V30 30 2 28 31
M  V30 31 1 30 32
M  V30 32 1 31 33
M  V30 33 1 32 34
M  V30 34 1 32 35
M  V30 35 1 33 36
M  V30 36 1 33 37
M  V30 37 1 33 38
M  V30 38 1 9 11
M  V30 39 1 15 17
M  V30 40 1 23 26
M  V30 41 1 29 31
M  V30 END BOND
M  V30 END CTAB
M  END
>  <Molecule ChEMBL ID>
CHEMBL198091

>  <Smiles>
CC(C)COc1ccc2c(c1)c(Oc1cccc(C(F)(F)F)c1)c(C(=O)O)n2-c1ccc(C(C)(C)C)cc1

>  <IC50_nM>
18

>  <Assay Description>
Inhibitory concentration against human peroxisome proliferator activated receptor gamma in SPA assay

$$$$
CHEMBL2331774
Actelion Java MolfileCreator 2.0

  0  0  0  0  0  0              0 V3000
M  V30 BEGIN CTAB
M  V30 COUNTS 35 37 0 0 0
M  V30 BEGIN ATOM
M  V30 1 Br 15.5884 2.25 0.0 0
M  V30 2 C 14.2894 1.5 0.0 0
M  V30 3 C 12.9903 2.25 0.0 0
M  V30 4 C 14.2894 0.0 0.0 0
M  V30 5 C 11.6913 1.5 0.0 0
M  V30 6 C 12.9903 -0.75 0.0 0
M  V30 7 O 10.3923 2.25 0.0 0
M  V30 8 C 11.6913 0.0 0.0 0
M  V30 9 C 10.3923 3.75 0.0 0
M  V30 10 S 10.3923 -0.75 0.0 0
M  V30 11 F 11.8923 3.75 0.0 0
M  V30 12 F 10.3923 5.25 0.0 0
M  V30 13 F 8.8923 3.75 0.0 0
M  V30 14 O 9.6423 -2.049 0.0 0
M  V30 15 O 11.1423 -2.049 0.0 0
M  V30 16 N 9.0932 0.0 0.0 0
M  V30 17 C 7.7942 -0.75 0.0 0
M  V30 18 C 6.4951 0.0 0.0 0
M  V30 19 C 7.7942 -2.25 0.0 0
M  V30 20 C 5.1961 -0.75 0.0 0
M  V30 21 C 6.4951 -3.0 0.0 0
M  V30 22 C 5.1961 -2.25 0.0 0
M  V30 23 C 3.8971 0.0 0.0 0
M  V30 24 O 3.8971 -3.0 0.0 0
M  V30 25 O 3.8971 1.5 0.0 0
M  V30 26 N 2.598 -0.75 0.0 0
M  V30 27 C 3.8971 -4.5 0.0 0
M  V30 28 C 1.299 0.0 0.0 0
M  V30 29 C 2.598 -5.25 0.0 0
M  V30 30 C 5.1961 -5.25 0.0 0
M  V30 31 C 0.0 -0.75 0.0 0
M  V30 32 N 2.598 -6.75 0.0 0
M  V30 33 C 5.1961 -6.75 0.0 0
M  V30 34 C 3.8971 -7.5 0.0 0
M  V30 35 Cl 6.4951 -7.5 0.0 0
M  V30 END ATOM
M  V30 BEGIN BOND
M  V30 1 1 1 2
M  V30 2 2 2 3
M  V30 3 1 2 4
M  V30 4 1 3 5
M  V30 5 2 4 6
M  V30 6 1 5 7
M  V30 7 2 5 8
M  V30 8 1 7 9
M  V30 9 1 8 10
M  V30 10 1 9 11
M  V30 11 1 9 12
M  V30 12 1 9 13
M  V30 13 2 10 14
M  V30 14 2 10 15
M  V30 15 1 10 16
M  V30 16 1 16 17
M  V30 17 2 17 18
M  V30 18 1 17 19
M  V30 19 1 18 20
M  V30 20 2 19 21
M  V30 21 2 20 22
M  V30 22 1 20 23
M  V30 23 1 22 24
M  V30 24 2 23 25
M  V30 25 1 23 26
M  V30 26 1 24 27
M  V30 27 1 26 28
M  V30 28 2 27 29
M  V30 29 1 27 30
M  V30 30 1 28 31
M  V30 31 1 29 32
M  V30 32 2 30 33
M  V30 33 2 32 34
M  V30 34 1 33 35
M  V30 35 1 6 8
M  V30 36 1 21 22
M  V30 37 1 33 34
M  V30 END BOND
M  V30 END CTAB
M  END
>  <Molecule ChEMBL ID>
CHEMBL2331774

>  <Smiles>
CCNC(=O)c1cc(NS(=O)(=O)c2ccc(Br)cc2OC(F)(F)F)ccc1Oc1cncc(Cl)c1

>  <IC50_nM>
18

>  <Assay Description>
Displacement of [3H]-rosiglitazone from GST-tagged PPARgammaLBD (unknown origin) after 1 hr by scintillation proximity assay

$$$$
CHEMBL2338472
Actelion Java MolfileCreator 2.0

  0  0  0  0  0  0              0 V3000
M  V30 BEGIN CTAB
M  V30 COUNTS 30 33 0 0 0
M  V30 BEGIN ATOM
M  V30 1 Cl 2.598 2.25 0.0 0
M  V30 2 C 3.8971 1.5 0.0 0
M  V30 3 C 3.8971 0.0 0.0 0
M  V30 4 C 5.1961 2.25 0.0 0
M  V30 5 S 2.598 -0.75 0.0 0
M  V30 6 C 5.1961 -0.75 0.0 0
M  V30 7 C 6.4951 1.5 0.0 0
M  V30 8 O 1.848 -2.049 0.0 0
M  V30 9 O 3.348 -2.049 0.0 0
M  V30 10 N 1.299 0.0 0.0 0
M  V30 11 C 6.4951 0.0 0.0 0
M  V30 12 Cl 7.7942 2.25 0.0 0
M  V30 13 C 0.0 -0.75 0.0 0
M  V30 14 C -1.299 0.0 0.0 0
M  V30 15 C 0.0 -2.25 0.0 0
M  V30 16 C -2.598 -0.75 0.0 0
M  V30 17 C -1.299 -3.0 0.0 0
M  V30 18 Cl -3.8971 0.0 0.0 0
M  V30 19 C -2.598 -2.25 0.0 0
M  V30 20 O -3.8971 -3.0 0.0 0
M  V30 21 C -3.8971 -4.5 0.0 0
M  V30 22 C -5.1961 -5.25 0.0 0
M  V30 23 C -2.598 -5.25 0.0 0
M  V30 24 N -5.1961 -6.75 0.0 0
M  V30 25 C -2.598 -6.75 0.0 0
M  V30 26 C -3.8971 -7.5 0.0 0
M  V30 27 C -1.299 -7.5 0.0 0
M  V30 28 C -3.8971 -9.0 0.0 0
M  V30 29 C -1.299 -9.0 0.0 0
M  V30 30 C -2.598 -9.75 0.0 0
M  V30 END ATOM
M  V30 BEGIN BOND
M  V30 1 1 1 2
M  V30 2 2 2 3
M  V30 3 1 2 4
M  V30 4 1 3 5
M  V30 5 1 3 6
M  V30 6 2 4 7
M  V30 7 2 5 8
M  V30 8 2 5 9
M  V30 9 1 5 10
M  V30 10 2 6 11
M  V30 11 1 7 12
M  V30 12 1 10 13
M  V30 13 2 13 14
M  V30 14 1 13 15
M  V30 15 1 14 16
M  V30 16 2 15 17
M  V30 17 1 16 18
M  V30 18 2 16 19
M  V30 19 1 19 20
M  V30 20 1 20 21
M  V30 21 1 21 22
M  V30 22 2 21 23
M  V30 23 2 22 24
M  V30 24 1 23 25
M  V30 25 1 24 26
M  V30 26 2 25 27
M  V30 27 2 26 28
M  V30 28 1 27 29
M  V30 29 1 28 30
M  V30 30 1 7 11
M  V30 31 1 17 19
M  V30 32 1 25 26
M  V30 33 2 29 30
M  V30 END BOND
M  V30 END CTAB
M  END
>  <Molecule ChEMBL ID>
CHEMBL2338472

>  <Smiles>
O=S(=O)(Nc1ccc(Oc2cnc3ccccc3c2)c(Cl)c1)c1ccc(Cl)cc1Cl

>  <IC50_nM>
18

>  <Assay Description>
Displacement of [3H]-rosiglitazone from GST-tagged PPARgammaLBD (unknown origin) after 1 hr by scintillation proximity assay

$$$$
CHEMBL392058
Actelion Java MolfileCreator 2.0

  0  0  0  0  0  0              0 V3000
M  V30 BEGIN CTAB
M  V30 COUNTS 35 37 0 0 0
M  V30 BEGIN ATOM
M  V30 1 F 9.8432 -1.7009 0.0 0
M  V30 2 C 9.0932 -3.0 0.0 0
M  V30 3 F 10.3923 -3.75 0.0 0
M  V30 4 F 8.3432 -4.299 0.0 0
M  V30 5 C 7.7942 -2.25 0.0 0
M  V30 6 C 7.7942 -0.75 0.0 0
M  V30 7 C 6.4951 -3.0 0.0 0
M  V30 8 C 6.4951 0.0 0.0 0
M  V30 9 C 5.1961 -2.25 0.0 0
M  V30 10 C 5.1961 -0.75 0.0 0
M  V30 11 C 3.8971 0.0 0.0 0
M  V30 12 O 3.8971 1.5 0.0 0
M  V30 13 N 2.598 -0.75 0.0 0
M  V30 14 C 1.299 0.0 0.0 0
M  V30 15 C 0.0 -0.75 0.0 0
M  V30 16 C -1.299 0.0 0.0 0
M  V30 17 C 0.0 -2.25 0.0 0
M  V30 18 C -2.598 -0.75 0.0 0
M  V30 19 C -1.299 -3.0 0.0 0
M  V30 20 O -3.8971 0.0 0.0 0
M  V30 21 C -2.598 -2.25 0.0 0
M  V30 22 C -5.1961 -0.75 0.0 0
M  V30 23 C -6.4951 0.0 0.0 0
M  V30 24 C -5.1961 -2.25 0.0 0
M  V30 25 C -7.7942 -0.75 0.0 0
M  V30 26 C -6.4951 -3.0 0.0 0
M  V30 27 C -7.7942 -2.25 0.0 0
M  V30 28 C -9.0932 0.0 0.0 0
M  V30 29 O -9.0932 -3.0 0.0 0
M  V30 30 C -9.0932 -4.5 0.0 0
M  V30 31 C -10.3923 -5.25 0.0 0
M  V30 32 C -8.3433 -5.799 0.0 0
M  V30 33 C -7.5933 -4.4999 0.0 0
M  V30 34 O -11.6913 -4.5 0.0 0
M  V30 35 O -10.3923 -6.75 0.0 0
M  V30 END ATOM
M  V30 BEGIN BOND
M  V30 1 1 1 2
M  V30 2 1 2 3
M  V30 3 1 2 4
M  V30 4 1 2 5
M  V30 5 2 5 6
M  V30 6 1 5 7
M  V30 7 1 6 8
M  V30 8 2 7 9
M  V30 9 2 8 10
M  V30 10 1 10 11
M  V30 11 2 11 12
M  V30 12 1 11 13
M  V30 13 1 13 14
M  V30 14 1 14 15
M  V30 15 2 15 16
M  V30 16 1 15 17
M  V30 17 1 16 18
M  V30 18 2 17 19
M  V30 19 1 18 20
M  V30 20 2 18 21
M  V30 21 1 20 22
M  V30 22 2 22 23
M  V30 23 1 22 24
M  V30 24 1 23 25
M  V30 25 2 24 26
M  V30 26 2 25 27
M  V30 27 1 25 28
M  V30 28 1 27 29
M  V30 29 1 29 30
M  V30 30 1 30 31
M  V30 31 1 30 32
M  V30 32 1 30 33
M  V30 33 2 31 34
M  V30 34 1 31 35
M  V30 35 1 9 10
M  V30 36 1 19 21
M  V30 37 1 26 27
M  V30 END BOND
M  V30 END CTAB
M  END
>  <Molecule ChEMBL ID>
CHEMBL392058

>  <Smiles>
Cc1cc(Oc2cccc(CNC(=O)c3ccc(C(F)(F)F)cc3)c2)ccc1OC(C)(C)C(=O)O

>  <IC50_nM>
18

>  <Assay Description>
Displacement of [3H]2-methyl-2-(4-{3-{propyl-(5-pyridin-2-yl-thiophene-2-sulfonyl)-amino}-propyl}-phenoxy)-propionic acid from human PPARgamma

$$$$
CHEMBL3699378
Actelion Java MolfileCreator 2.0

  0  0  0  0  0  0              0 V3000
M  V30 BEGIN CTAB
M  V30 COUNTS 37 41 0 0 0
M  V30 BEGIN ATOM
M  V30 1 Cl 6.0621 0.0 0.0 0
M  V30 2 C 5.1961 -0.5 0.0 0
M  V30 3 C 4.3301 0.0 0.0 0
M  V30 4 C 5.1961 -1.4999 0.0 0
M  V30 5 F 4.3301 1.0 0.0 0
M  V30 6 C 3.4641 -0.5 0.0 0
M  V30 7 C 4.3301 -1.9999 0.0 0
M  V30 8 C 3.4641 -1.4999 0.0 0
M  V30 9 C 2.598 0.0 0.0 0 CFG=1
M  V30 10 N 1.732 -0.5 0.0 0
M  V30 11 C 2.598 1.0 0.0 0
M  V30 12 C 0.866 0.0 0.0 0
M  V30 13 O 0.866 1.0 0.0 0
M  V30 14 C 0.0 -0.5 0.0 0
M  V30 15 C 0.0 -1.4999 0.0 0
M  V30 16 C -0.866 0.0 0.0 0
M  V30 17 C -0.866 -1.9999 0.0 0
M  V30 18 C -1.732 -0.4999 0.0 0
M  V30 19 C -1.732 -1.4999 0.0 0
M  V30 20 C -1.0739 -2.9781 0.0 0
M  V30 21 N -2.4751 -2.1691 0.0 0
M  V30 22 C -2.0684 -3.0826 0.0 0
M  V30 23 C -0.4048 -3.7212 0.0 0
M  V30 24 C -3.4533 -1.9612 0.0 0
M  V30 25 C -2.5684 -3.9487 0.0 0
M  V30 26 C -4.1224 -2.7043 0.0 0
M  V30 27 C -5.1006 -2.4964 0.0 0
M  V30 28 C -3.8134 -3.6554 0.0 0
M  V30 29 C -5.7697 -3.2395 0.0 0
M  V30 30 C -4.4825 -4.3985 0.0 0
M  V30 31 C -5.4607 -4.1906 0.0 0
M  V30 32 C -6.1298 -4.9337 0.0 0
M  V30 33 C -7.108 -4.7258 0.0 0
M  V30 34 C -5.8208 -5.8848 0.0 0
M  V30 35 C -7.7771 -5.469 0.0 0
M  V30 36 C -6.4899 -6.6279 0.0 0
M  V30 37 C -7.4681 -6.42 0.0 0
M  V30 END ATOM
M  V30 BEGIN BOND
M  V30 1 1 1 2
M  V30 2 2 2 3
M  V30 3 1 2 4
M  V30 4 1 3 5
M  V30 5 1 3 6
M  V30 6 2 4 7
M  V30 7 2 6 8
M  V30 8 1 6 9
M  V30 9 1 9 10
M  V30 10 1 9 11 CFG=1
M  V30 11 1 10 12
M  V30 12 2 12 13
M  V30 13 1 12 14
M  V30 14 2 14 15
M  V30 15 1 14 16
M  V30 16 1 15 17
M  V30 17 2 16 18
M  V30 18 2 17 19
M  V30 19 1 17 20
M  V30 20 1 19 21
M  V30 21 2 20 22
M  V30 22 1 20 23
M  V30 23 1 21 24
M  V30 24 1 22 25
M  V30 25 1 24 26
M  V30 26 2 26 27
M  V30 27 1 26 28
M  V30 28 1 27 29
M  V30 29 2 28 30
M  V30 30 2 29 31
M  V30 31 1 31 32
M  V30 32 2 32 33
M  V30 33 1 32 34
M  V30 34 1 33 35
M  V30 35 2 34 36
M  V30 36 2 35 37
M  V30 37 1 7 8
M  V30 38 1 18 19
M  V30 39 1 21 22
M  V30 40 1 30 31
M  V30 41 1 36 37
M  V30 END BOND
M  V30 BEGIN COLLECTION
M  V30 MDLV30/STEABS ATOMS=(1 9)
M  V30 END COLLECTION
M  V30 END CTAB
M  END
>  <Molecule ChEMBL ID>
CHEMBL3699378

>  <Smiles>
Cc1c(C)n(Cc2ccc(-c3ccccc3)cc2)c2ccc(C(=O)N[C@@H](C)c3cccc(Cl)c3F)cc12

>  <IC50_nM>
18

>  <Assay Description>
Lanthascreen Competitive Binding Assay: The assay was performed according to manufacturer protocol. A mixture of nM GST-PPARG-LBD, 5 nM Tb-GST-antibody, 5 nM Fluormone Pan-PPAR Green, and serial dilutions of the experimental compound, beginning at 10 ׬M downwards, was added to wells of black 384-well low-volume plates (Greiner) to a total volume of 18 ׬L. All dilutions were made in TR-FRET assay buffer C. DMSO at 2% final concentration was used as a no-ligand control. Experiment was performed in triplicate, and incubated for 2 hours in the dark prior to assay read in Perkin Elmer ViewLux ultra HTS microplate reader. FRET signal was measured by excitation at 340 nm and emission at 520 nm for fluorescein and 490 nm for terbium. Fold change over DMSO was calculated using GraphPad Prism Software (La Jolla, Calif.) by calculating 520 nm/490 nm ratio. Graphs were plotted as fold change of FRET signal for compound treatment over DMSO-only control.

$$$$
CHEMBL3585580
Actelion Java MolfileCreator 2.0

  0  0  0  0  0  0              0 V3000
M  V30 BEGIN CTAB
M  V30 COUNTS 34 37 0 0 0
M  V30 BEGIN ATOM
M  V30 1 S 7.8987 0.0054 0.0 0
M  V30 2 C 8.8769 -0.2024 0.0 0
M  V30 3 C 7.7942 0.9999 0.0 0 CFG=2
M  V30 4 O 9.2836 -1.1159 0.0 0
M  V30 5 N 9.3769 0.6635 0.0 0
M  V30 6 C 8.7077 1.4067 0.0 0
M  V30 7 C 6.9282 1.4999 0.0 0
M  V30 8 O 8.9156 2.3848 0.0 0
M  V30 9 C 6.0621 0.9999 0.0 0
M  V30 10 C 5.1961 1.4999 0.0 0
M  V30 11 C 6.0621 0.0 0.0 0
M  V30 12 C 4.3301 0.9999 0.0 0
M  V30 13 C 5.1961 -0.5 0.0 0
M  V30 14 C 4.3301 0.0 0.0 0
M  V30 15 O 3.4641 -0.5 0.0 0
M  V30 16 C 2.598 0.0 0.0 0
M  V30 17 C 1.732 -0.5 0.0 0
M  V30 18 N 0.866 0.0 0.0 0
M  V30 19 C 0.866 1.0 0.0 0
M  V30 20 C 0.0 -0.5 0.0 0
M  V30 21 N 1.732 1.5 0.0 0
M  V30 22 C 0.0 1.4999 0.0 0
M  V30 23 C 1.732 2.5 0.0 0
M  V30 24 C 0.0 2.4999 0.0 0
M  V30 25 N 0.866 3.0 0.0 0
M  V30 26 O -0.866 2.9999 0.0 0
M  V30 27 C -1.732 2.4999 0.0 0
M  V30 28 C -2.598 2.9999 0.0 0
M  V30 29 C -1.732 1.4999 0.0 0
M  V30 30 C -3.4641 2.5 0.0 0
M  V30 31 C -2.598 0.9999 0.0 0
M  V30 32 C -3.4641 1.4999 0.0 0
M  V30 33 O -4.3301 0.9999 0.0 0
M  V30 34 C -4.3301 0.0 0.0 0
M  V30 END ATOM
M  V30 BEGIN BOND
M  V30 1 1 1 2
M  V30 2 1 1 3
M  V30 3 2 2 4
M  V30 4 1 2 5
M  V30 5 1 3 6
M  V30 6 1 3 7 CFG=1
M  V30 7 2 6 8
M  V30 8 1 7 9
M  V30 9 2 9 10
M  V30 10 1 9 11
M  V30 11 1 10 12
M  V30 12 2 11 13
M  V30 13 2 12 14
M  V30 14 1 14 15
M  V30 15 1 15 16
M  V30 16 1 16 17
M  V30 17 1 17 18
M  V30 18 1 18 19
M  V30 19 1 18 20
M  V30 20 2 19 21
M  V30 21 1 19 22
M  V30 22 1 21 23
M  V30 23 2 22 24
M  V30 24 2 23 25
M  V30 25 1 24 26
M  V30 26 1 26 27
M  V30 27 2 27 28
M  V30 28 1 27 29
M  V30 29 1 28 30
M  V30 30 2 29 31
M  V30 31 2 30 32
M  V30 32 1 32 33
M  V30 33 1 33 34
M  V30 34 1 5 6
M  V30 35 1 13 14
M  V30 36 1 24 25
M  V30 37 1 31 32
M  V30 END BOND
M  V30 BEGIN COLLECTION
M  V30 MDLV30/STERAC1 ATOMS=(1 3)
M  V30 END COLLECTION
M  V30 END CTAB
M  END
>  <Molecule ChEMBL ID>
CHEMBL3585580

>  <Smiles>
COc1ccc(Oc2cc(N(C)CCOc3ccc(CC4SC(=O)NC4=O)cc3)ncn2)cc1

>  <IC50_nM>
18

>  <Assay Description>
Binding affinity to PPARgamma (unknown origin)

$$$$
CHEMBL1236924
Actelion Java MolfileCreator 2.0

  0  0  0  0  0  0              0 V3000
M  V30 BEGIN CTAB
M  V30 COUNTS 31 34 0 0 0
M  V30 BEGIN ATOM
M  V30 1 Cl 7.7942 -0.75 0.0 0
M  V30 2 C 6.4951 0.0 0.0 0
M  V30 3 C 6.4951 1.5 0.0 0
M  V30 4 C 5.1961 -0.75 0.0 0
M  V30 5 O 7.7942 2.25 0.0 0
M  V30 6 C 5.1961 2.25 0.0 0
M  V30 7 C 3.8971 0.0 0.0 0
M  V30 8 C 7.7942 3.75 0.0 0
M  V30 9 Cl 5.1961 3.75 0.0 0
M  V30 10 C 3.8971 1.5 0.0 0
M  V30 11 N 2.598 -0.75 0.0 0
M  V30 12 C 9.0932 4.5 0.0 0
M  V30 13 C 6.4951 4.5 0.0 0
M  V30 14 S 1.299 0.0 0.0 0
M  V30 15 N 9.0932 6.0 0.0 0
M  V30 16 C 6.4951 6.0 0.0 0
M  V30 17 O 2.049 1.299 0.0 0
M  V30 18 O 0.549 1.299 0.0 0
M  V30 19 C 0.0 -0.75 0.0 0
M  V30 20 C 7.7942 6.75 0.0 0
M  V30 21 C 5.1961 6.75 0.0 0
M  V30 22 C -1.299 0.0 0.0 0
M  V30 23 C 0.0 -2.25 0.0 0
M  V30 24 C 7.7942 8.25 0.0 0
M  V30 25 C 5.1961 8.25 0.0 0
M  V30 26 Cl -1.299 1.5 0.0 0
M  V30 27 C -2.598 -0.75 0.0 0
M  V30 28 C -1.299 -3.0 0.0 0
M  V30 29 C 6.4951 9.0 0.0 0
M  V30 30 C -2.598 -2.25 0.0 0
M  V30 31 Cl -3.8971 -3.0 0.0 0
M  V30 END ATOM
M  V30 BEGIN BOND
M  V30 1 1 1 2
M  V30 2 2 2 3
M  V30 3 1 2 4
M  V30 4 1 3 5
M  V30 5 1 3 6
M  V30 6 2 4 7
M  V30 7 1 5 8
M  V30 8 1 6 9
M  V30 9 2 6 10
M  V30 10 1 7 11
M  V30 11 1 8 12
M  V30 12 2 8 13
M  V30 13 1 11 14
M  V30 14 2 12 15
M  V30 15 1 13 16
M  V30 16 2 14 17
M  V30 17 2 14 18
M  V30 18 1 14 19
M  V30 19 1 15 20
M  V30 20 2 16 21
M  V30 21 2 19 22
M  V30 22 1 19 23
M  V30 23 2 20 24
M  V30 24 1 21 25
M  V30 25 1 22 26
M  V30 26 1 22 27
M  V30 27 2 23 28
M  V30 28 1 24 29
M  V30 29 2 27 30
M  V30 30 1 30 31
M  V30 31 1 7 10
M  V30 32 1 16 20
M  V30 33 2 25 29
M  V30 34 1 28 30
M  V30 END BOND
M  V30 END CTAB
M  END
>  <Molecule ChEMBL ID>
CHEMBL1236924

>  <Smiles>
O=S(=O)(Nc1cc(Cl)c(Oc2cnc3ccccc3c2)c(Cl)c1)c1ccc(Cl)cc1Cl

>  <IC50_nM>
18

>  <Assay Description>
Agonist activity at PPARgamma (unknown origin)

$$$$
CHEMBL3780740
Actelion Java MolfileCreator 2.0

  0  0  0  0  0  0              0 V3000
M  V30 BEGIN CTAB
M  V30 COUNTS 39 41 0 0 0
M  V30 BEGIN ATOM
M  V30 1 S 6.8527 0.9651 0.0 0
M  V30 2 O 6.0866 0.3224 0.0 0
M  V30 3 O 7.7924 0.6231 0.0 0
M  V30 4 O 5.913 1.3072 0.0 0
M  V30 5 O 6.679 1.95 0.0 0
M  V30 6 S 3.6075 6.3529 0.0 0
M  V30 7 C 3.8154 7.331 0.0 0
M  V30 8 C 2.613 6.2483 0.0 0 CFG=2
M  V30 9 O 4.729 7.7378 0.0 0
M  V30 10 N 2.9494 7.831 0.0 0
M  V30 11 C 2.2062 7.1619 0.0 0
M  V30 12 C 2.113 5.3823 0.0 0
M  V30 13 O 1.2281 7.3698 0.0 0
M  V30 14 C 2.613 4.5163 0.0 0
M  V30 15 C 2.113 3.6503 0.0 0
M  V30 16 C 3.613 4.5163 0.0 0
M  V30 17 C 2.613 2.7842 0.0 0
M  V30 18 C 4.113 3.6503 0.0 0
M  V30 19 C 3.613 2.7842 0.0 0
M  V30 20 O 4.113 1.9182 0.0 0
M  V30 21 C 3.613 1.0522 0.0 0
M  V30 22 C 4.113 0.1862 0.0 0
M  V30 23 N 3.613 -0.6798 0.0 0
M  V30 24 C 2.613 -0.6798 0.0 0
M  V30 25 C 4.113 -1.5458 0.0 0
M  V30 26 N 2.113 0.1862 0.0 0
M  V30 27 C 2.113 -1.5458 0.0 0
M  V30 28 C 1.113 0.1862 0.0 0
M  V30 29 C 1.113 -1.5458 0.0 0
M  V30 30 N 0.613 -0.6798 0.0 0
M  V30 31 O 0.613 -2.4118 0.0 0
M  V30 32 C 1.113 -3.2778 0.0 0
M  V30 33 C 0.613 -4.1439 0.0 0
M  V30 34 C 2.113 -3.2778 0.0 0
M  V30 35 C 1.113 -5.0099 0.0 0
M  V30 36 C 2.613 -4.1439 0.0 0
M  V30 37 C 2.113 -5.0099 0.0 0
M  V30 38 O 2.613 -5.8759 0.0 0
M  V30 39 C 3.613 -5.8759 0.0 0
M  V30 END ATOM
M  V30 BEGIN BOND
M  V30 1 2 1 2
M  V30 2 2 1 3
M  V30 3 1 1 4
M  V30 4 1 1 5
M  V30 5 1 6 7
M  V30 6 1 6 8
M  V30 7 2 7 9
M  V30 8 1 7 10
M  V30 9 1 8 11
M  V30 10 1 8 12 CFG=1
M  V30 11 2 11 13
M  V30 12 1 12 14
M  V30 13 2 14 15
M  V30 14 1 14 16
M  V30 15 1 15 17
M  V30 16 2 16 18
M  V30 17 2 17 19
M  V30 18 1 19 20
M  V30 19 1 20 21
M  V30 20 1 21 22
M  V30 21 1 22 23
M  V30 22 1 23 24
M  V30 23 1 23 25
M  V30 24 2 24 26
M  V30 25 1 24 27
M  V30 26 1 26 28
M  V30 27 2 27 29
M  V30 28 2 28 30
M  V30 29 1 29 31
M  V30 30 1 31 32
M  V30 31 2 32 33
M  V30 32 1 32 34
M  V30 33 1 33 35
M  V30 34 2 34 36
M  V30 35 2 35 37
M  V30 36 1 37 38
M  V30 37 1 38 39
M  V30 38 1 10 11
M  V30 39 1 18 19
M  V30 40 1 29 30
M  V30 41 1 36 37
M  V30 END BOND
M  V30 BEGIN COLLECTION
M  V30 MDLV30/STERAC1 ATOMS=(1 8)
M  V30 END COLLECTION
M  V30 END CTAB
M  END
>  <Molecule ChEMBL ID>
CHEMBL3780740

>  <Smiles>
COc1ccc(Oc2cc(N(C)CCOc3ccc(CC4SC(=O)NC4=O)cc3)ncn2)cc1.O=S(=O)(O)O

>  <IC50_nM>
18

>  <Assay Description>
Agonist activity at PPAR-gamma receptor (unknown origin)

$$$$
CHEMBL82034
Actelion Java MolfileCreator 2.0

  0  0  0  0  0  0              0 V3000
M  V30 BEGIN CTAB
M  V30 COUNTS 34 37 0 0 0
M  V30 BEGIN ATOM
M  V30 1 O 5.1961 -4.5 0.0 0
M  V30 2 C 5.1961 -3.4999 0.0 0
M  V30 3 O 4.3301 -2.9999 0.0 0
M  V30 4 C 6.0621 -3.0 0.0 0 CFG=1
M  V30 5 O 6.9282 -3.5 0.0 0
M  V30 6 C 6.0621 -1.9999 0.0 0
M  V30 7 C 6.0621 -4.0 0.0 0
M  V30 8 C 7.7942 -3.0 0.0 0
M  V30 9 C 5.1961 -1.4999 0.0 0
M  V30 10 C 7.7942 -2.0 0.0 0
M  V30 11 C 8.6602 -3.5 0.0 0
M  V30 12 C 5.1961 -0.5 0.0 0
M  V30 13 C 4.3301 -1.9999 0.0 0
M  V30 14 C 8.6602 -1.5 0.0 0
M  V30 15 C 9.5262 -3.0 0.0 0
M  V30 16 C 4.3301 0.0 0.0 0
M  V30 17 C 3.4641 -1.5 0.0 0
M  V30 18 C 9.5262 -2.0 0.0 0
M  V30 19 C 3.4641 -0.5 0.0 0
M  V30 20 O 2.598 0.0 0.0 0
M  V30 21 C 1.732 -0.5 0.0 0
M  V30 22 C 0.866 0.0 0.0 0
M  V30 23 C 0.0 -0.5 0.0 0
M  V30 24 N -0.9135 -0.0932 0.0 0
M  V30 25 C -0.1045 -1.4945 0.0 0
M  V30 26 C -1.5826 -0.8364 0.0 0
M  V30 27 O -1.0826 -1.7024 0.0 0
M  V30 28 C 0.6386 -2.1636 0.0 0
M  V30 29 C -2.5771 -0.7318 0.0 0
M  V30 30 C -2.9839 0.1816 0.0 0
M  V30 31 C -3.1649 -1.5408 0.0 0
M  V30 32 C -3.9784 0.2861 0.0 0
M  V30 33 C -4.1595 -1.4363 0.0 0
M  V30 34 C -4.5662 -0.5228 0.0 0
M  V30 END ATOM
M  V30 BEGIN BOND
M  V30 1 2 1 2
M  V30 2 1 2 3
M  V30 3 1 2 4
M  V30 4 1 4 5
M  V30 5 1 4 6
M  V30 6 1 4 7 CFG=1
M  V30 7 1 5 8
M  V30 8 1 6 9
M  V30 9 2 8 10
M  V30 10 1 8 11
M  V30 11 2 9 12
M  V30 12 1 9 13
M  V30 13 1 10 14
M  V30 14 2 11 15
M  V30 15 1 12 16
M  V30 16 2 13 17
M  V30 17 2 14 18
M  V30 18 2 16 19
M  V30 19 1 19 20
M  V30 20 1 20 21
M  V30 21 1 21 22
M  V30 22 1 22 23
M  V30 23 1 23 24
M  V30 24 2 23 25
M  V30 25 2 24 26
M  V30 26 1 25 27
M  V30 27 1 25 28
M  V30 28 1 26 29
M  V30 29 2 29 30
M  V30 30 1 29 31
M  V30 31 1 30 32
M  V30 32 2 31 33
M  V30 33 2 32 34
M  V30 34 1 15 18
M  V30 35 1 17 19
M  V30 36 1 26 27
M  V30 37 1 33 34
M  V30 END BOND
M  V30 BEGIN COLLECTION
M  V30 MDLV30/STERAC1 ATOMS=(1 4)
M  V30 END COLLECTION
M  V30 END CTAB
M  END
>  <Molecule ChEMBL ID>
CHEMBL82034

>  <Smiles>
Cc1oc(-c2ccccc2)nc1CCOc1ccc(CC(C)(Oc2ccccc2)C(=O)O)cc1

>  <IC50_nM>
18

>  <Assay Description>
Displacement of PPARgamma agonist from human PPAR gamma receptor

$$$$
CHEMBL3695887
Actelion Java MolfileCreator 2.0

  0  0  0  0  0  0              0 V3000
M  V30 BEGIN CTAB
M  V30 COUNTS 36 40 0 0 0
M  V30 BEGIN ATOM
M  V30 1 F 4.3301 0.9999 0.0 0
M  V30 2 C 4.3301 0.0 0.0 0
M  V30 3 C 3.4641 -0.5 0.0 0
M  V30 4 C 5.1961 -0.5 0.0 0
M  V30 5 C 3.4641 -1.5 0.0 0
M  V30 6 C 2.598 0.0 0.0 0
M  V30 7 C 5.1961 -1.5 0.0 0
M  V30 8 C 4.3301 -2.0 0.0 0
M  V30 9 N 1.732 -0.5 0.0 0
M  V30 10 F 6.0621 -2.0 0.0 0
M  V30 11 C 0.866 0.0 0.0 0
M  V30 12 O 0.866 1.0 0.0 0
M  V30 13 C 0.0 -0.5 0.0 0
M  V30 14 C 0.0 -1.4999 0.0 0
M  V30 15 C -0.866 0.0 0.0 0
M  V30 16 C -0.866 -1.9999 0.0 0
M  V30 17 C -1.732 -0.4999 0.0 0
M  V30 18 C -1.732 -1.4999 0.0 0
M  V30 19 C -1.0739 -2.9781 0.0 0
M  V30 20 N -2.4751 -2.1691 0.0 0
M  V30 21 C -2.0684 -3.0826 0.0 0
M  V30 22 C -0.4048 -3.7212 0.0 0
M  V30 23 C -3.4533 -1.9612 0.0 0
M  V30 24 C -2.5684 -3.9487 0.0 0
M  V30 25 C -4.1224 -2.7043 0.0 0
M  V30 26 C -5.1006 -2.4964 0.0 0
M  V30 27 C -3.8134 -3.6554 0.0 0
M  V30 28 C -5.7697 -3.2395 0.0 0
M  V30 29 C -4.4825 -4.3985 0.0 0
M  V30 30 C -5.4607 -4.1906 0.0 0
M  V30 31 C -6.1298 -4.9337 0.0 0
M  V30 32 C -7.108 -4.7258 0.0 0
M  V30 33 C -5.8208 -5.8848 0.0 0
M  V30 34 C -7.7771 -5.469 0.0 0
M  V30 35 C -6.4899 -6.6279 0.0 0
M  V30 36 C -7.4681 -6.42 0.0 0
M  V30 END ATOM
M  V30 BEGIN BOND
M  V30 1 1 1 2
M  V30 2 2 2 3
M  V30 3 1 2 4
M  V30 4 1 3 5
M  V30 5 1 3 6
M  V30 6 2 4 7
M  V30 7 2 5 8
M  V30 8 1 6 9
M  V30 9 1 7 10
M  V30 10 1 9 11
M  V30 11 2 11 12
M  V30 12 1 11 13
M  V30 13 2 13 14
M  V30 14 1 13 15
M  V30 15 1 14 16
M  V30 16 2 15 17
M  V30 17 2 16 18
M  V30 18 1 16 19
M  V30 19 1 18 20
M  V30 20 2 19 21
M  V30 21 1 19 22
M  V30 22 1 20 23
M  V30 23 1 21 24
M  V30 24 1 23 25
M  V30 25 2 25 26
M  V30 26 1 25 27
M  V30 27 1 26 28
M  V30 28 2 27 29
M  V30 29 2 28 30
M  V30 30 1 30 31
M  V30 31 2 31 32
M  V30 32 1 31 33
M  V30 33 1 32 34
M  V30 34 2 33 35
M  V30 35 2 34 36
M  V30 36 1 7 8
M  V30 37 1 17 18
M  V30 38 1 20 21
M  V30 39 1 29 30
M  V30 40 1 35 36
M  V30 END BOND
M  V30 END CTAB
M  END
>  <Molecule ChEMBL ID>
CHEMBL3695887

>  <Smiles>
Cc1c(C)n(Cc2ccc(-c3ccccc3)cc2)c2ccc(C(=O)NCc3ccc(F)cc3F)cc12

>  <IC50_nM>
19

>  <Assay Description>
Lanthascreen Competitive Binding Assay: The assay was performed according to manufacturer protocol. A mixture of nM GST-PPARG-LBD, 5 nM Tb-GST-antibody, 5 nM Fluormone Pan-PPAR Green, and serial dilutions of the experimental compound, beginning at 10 ׬M downwards, was added to wells of black 384-well low-volume plates (Greiner) to a total volume of 18 ׬L. All dilutions were made in TR-FRET assay buffer C. DMSO at 2% final concentration was used as a no-ligand control. Experiment was performed in triplicate, and incubated for 2 hours in the dark prior to assay read in Perkin Elmer ViewLux ultra HTS microplate reader. FRET signal was measured by excitation at 340 nm and emission at 520 nm for fluorescein and 490 nm for terbium. Fold change over DMSO was calculated using GraphPad Prism Software (La Jolla, Calif.) by calculating 520 nm/490 nm ratio. Graphs were plotted as fold change of FRET signal for compound treatment over DMSO-only control.

$$$$
CHEMBL331071
Actelion Java MolfileCreator 2.0

  0  0  0  0  0  0              0 V3000
M  V30 BEGIN CTAB
M  V30 COUNTS 35 38 0 0 0
M  V30 BEGIN ATOM
M  V30 1 S 8.7077 -0.4067 0.0 0
M  V30 2 C 9.3769 0.3364 0.0 0
M  V30 3 C 7.7942 0.0 0.0 0 CFG=2
M  V30 4 O 10.3714 0.2318 0.0 0
M  V30 5 N 8.8769 1.2024 0.0 0
M  V30 6 C 6.9282 -0.5 0.0 0
M  V30 7 C 7.8987 0.9945 0.0 0
M  V30 8 C 6.0621 0.0 0.0 0
M  V30 9 C 6.9282 -1.5 0.0 0
M  V30 10 O 7.1556 1.6636 0.0 0
M  V30 11 C 5.1961 -0.5 0.0 0
M  V30 12 C 6.0621 -2.0 0.0 0
M  V30 13 O 4.3301 0.0 0.0 0
M  V30 14 C 5.1961 -1.5 0.0 0
M  V30 15 C 3.4641 -0.5 0.0 0
M  V30 16 C 2.598 0.0 0.0 0
M  V30 17 C 1.732 -0.5 0.0 0
M  V30 18 O 0.866 0.0 0.0 0
M  V30 19 C 0.0 -0.5 0.0 0
M  V30 20 C -0.866 0.0 0.0 0
M  V30 21 C 0.0 -1.4999 0.0 0
M  V30 22 C -1.732 -0.4999 0.0 0
M  V30 23 C -0.866 1.0 0.0 0
M  V30 24 C -0.866 -1.9999 0.0 0
M  V30 25 C -1.732 -1.4999 0.0 0
M  V30 26 C 0.0 1.5 0.0 0
M  V30 27 C -2.598 -1.9999 0.0 0
M  V30 28 C 0.0 2.5 0.0 0
M  V30 29 O -3.4641 -1.4999 0.0 0
M  V30 30 C -2.598 -2.9999 0.0 0
M  V30 31 C -3.4641 -3.4999 0.0 0
M  V30 32 C -1.732 -3.4999 0.0 0
M  V30 33 C -3.4641 -4.4999 0.0 0
M  V30 34 C -1.732 -4.4999 0.0 0
M  V30 35 C -2.598 -4.9999 0.0 0
M  V30 END ATOM
M  V30 BEGIN BOND
M  V30 1 1 1 2
M  V30 2 1 1 3
M  V30 3 2 2 4
M  V30 4 1 2 5
M  V30 5 1 3 6 CFG=3
M  V30 6 1 3 7
M  V30 7 2 6 8
M  V30 8 1 6 9
M  V30 9 2 7 10
M  V30 10 1 8 11
M  V30 11 2 9 12
M  V30 12 1 11 13
M  V30 13 2 11 14
M  V30 14 1 13 15
M  V30 15 1 15 16
M  V30 16 1 16 17
M  V30 17 1 17 18
M  V30 18 1 18 19
M  V30 19 2 19 20
M  V30 20 1 19 21
M  V30 21 1 20 22
M  V30 22 1 20 23
M  V30 23 2 21 24
M  V30 24 2 22 25
M  V30 25 1 23 26
M  V30 26 1 25 27
M  V30 27 1 26 28
M  V30 28 2 27 29
M  V30 29 1 27 30
M  V30 30 2 30 31
M  V30 31 1 30 32
M  V30 32 1 31 33
M  V30 33 2 32 34
M  V30 34 2 33 35
M  V30 35 1 5 7
M  V30 36 1 12 14
M  V30 37 1 24 25
M  V30 38 1 34 35
M  V30 END BOND
M  V30 BEGIN COLLECTION
M  V30 MDLV30/STERAC1 ATOMS=(1 3)
M  V30 END COLLECTION
M  V30 END CTAB
M  END
>  <Molecule ChEMBL ID>
CHEMBL331071

>  <Smiles>
CCCc1cc(C(=O)c2ccccc2)ccc1OCCCOc1cccc(C2SC(=O)NC2=O)c1

>  <IC50_nM>
19

>  <Assay Description>
In vitro binding affinity against human peroxisome proliferator activated receptor gamma

$$$$
CHEMBL372639
Actelion Java MolfileCreator 2.0

  0  0  0  0  0  0              0 V3000
M  V30 BEGIN CTAB
M  V30 COUNTS 33 36 0 0 0
M  V30 BEGIN ATOM
M  V30 1 Cl 5.8147 -1.7024 0.0 0
M  V30 2 C 4.8147 -1.7024 0.0 0
M  V30 3 C 4.3147 -0.8364 0.0 0
M  V30 4 C 4.3147 -2.5684 0.0 0
M  V30 5 C 3.3147 -0.8364 0.0 0
M  V30 6 C 3.3147 -2.5684 0.0 0
M  V30 7 N 2.6455 -0.0932 0.0 0
M  V30 8 C 2.8147 -1.7024 0.0 0
M  V30 9 C 2.8535 0.8848 0.0 0
M  V30 10 C 1.732 -0.5 0.0 0
M  V30 11 C 1.8365 -1.4945 0.0 0
M  V30 12 C 3.8045 1.1939 0.0 0
M  V30 13 C 2.1103 1.554 0.0 0
M  V30 14 C 0.866 0.0 0.0 0
M  V30 15 O 1.0934 -2.1636 0.0 0
M  V30 16 C 4.0124 2.172 0.0 0
M  V30 17 C 2.3182 2.5321 0.0 0
M  V30 18 O 0.866 1.0 0.0 0
M  V30 19 O 0.0 -0.5 0.0 0
M  V30 20 C 1.3013 -3.1418 0.0 0
M  V30 21 C 3.2693 2.8411 0.0 0
M  V30 22 C 0.5582 -3.8109 0.0 0
M  V30 23 C 2.2524 -3.4508 0.0 0
M  V30 24 C 3.4772 3.8193 0.0 0
M  V30 25 C 0.7661 -4.789 0.0 0
M  V30 26 C 2.4603 -4.4289 0.0 0
M  V30 27 C 2.499 4.0272 0.0 0
M  V30 28 C 3.6851 4.7974 0.0 0
M  V30 29 C 4.4553 3.6114 0.0 0
M  V30 30 C 1.7171 -5.098 0.0 0
M  V30 31 C 0.0229 -5.4582 0.0 0
M  V30 32 C -0.928 -5.1491 0.0 0
M  V30 33 C 0.2308 -6.4363 0.0 0
M  V30 END ATOM
M  V30 BEGIN BOND
M  V30 1 1 1 2
M  V30 2 2 2 3
M  V30 3 1 2 4
M  V30 4 1 3 5
M  V30 5 2 4 6
M  V30 6 1 5 7
M  V30 7 2 5 8
M  V30 8 1 7 9
M  V30 9 1 7 10
M  V30 10 1 8 11
M  V30 11 2 9 12
M  V30 12 1 9 13
M  V30 13 1 10 14
M  V30 14 1 11 15
M  V30 15 1 12 16
M  V30 16 2 13 17
M  V30 17 2 14 18
M  V30 18 1 14 19
M  V30 19 1 15 20
M  V30 20 2 16 21
M  V30 21 2 20 22
M  V30 22 1 20 23
M  V30 23 1 21 24
M  V30 24 1 22 25
M  V30 25 2 23 26
M  V30 26 1 24 27
M  V30 27 1 24 28
M  V30 28 1 24 29
M  V30 29 2 25 30
M  V30 30 1 25 31
M  V30 31 1 31 32
M  V30 32 1 31 33
M  V30 33 1 6 8
M  V30 34 2 10 11
M  V30 35 1 17 21
M  V30 36 1 26 30
M  V30 END BOND
M  V30 END CTAB
M  END
>  <Molecule ChEMBL ID>
CHEMBL372639

>  <Smiles>
CC(C)c1cccc(Oc2c(C(=O)O)n(-c3ccc(C(C)(C)C)cc3)c3cc(Cl)ccc23)c1

>  <IC50_nM>
19

>  <Assay Description>
Inhibitory concentration against human peroxisome proliferator activated receptor gamma in SPA assay

$$$$
CHEMBL2338487
Actelion Java MolfileCreator 2.0

  0  0  0  0  0  0              0 V3000
M  V30 BEGIN CTAB
M  V30 COUNTS 28 30 0 0 0
M  V30 BEGIN ATOM
M  V30 1 Cl 2.598 2.25 0.0 0
M  V30 2 C 3.8971 1.5 0.0 0
M  V30 3 C 3.8971 0.0 0.0 0
M  V30 4 C 5.1961 2.25 0.0 0
M  V30 5 S 2.598 -0.75 0.0 0
M  V30 6 C 5.1961 -0.75 0.0 0
M  V30 7 C 6.4952 1.5 0.0 0
M  V30 8 O 1.848 -2.049 0.0 0
M  V30 9 O 3.348 -2.049 0.0 0
M  V30 10 N 1.299 0.0 0.0 0
M  V30 11 C 6.4952 0.0 0.0 0
M  V30 12 Cl 7.7942 2.25 0.0 0
M  V30 13 C 0.0 -0.75 0.0 0
M  V30 14 C -1.299 0.0 0.0 0
M  V30 15 C 0.0 -2.25 0.0 0
M  V30 16 C -2.598 -0.75 0.0 0
M  V30 17 C -1.299 -3.0 0.0 0
M  V30 18 O -3.8971 0.0 0.0 0
M  V30 19 C -2.598 -2.25 0.0 0
M  V30 20 C -5.1961 -0.75 0.0 0
M  V30 21 O -3.8971 -3.0 0.0 0
M  V30 22 C -3.8971 -4.5 0.0 0
M  V30 23 C -5.1961 -5.25 0.0 0
M  V30 24 C -2.598 -5.25 0.0 0
M  V30 25 N -5.1961 -6.75 0.0 0
M  V30 26 C -2.598 -6.75 0.0 0
M  V30 27 C -3.8971 -7.5 0.0 0
M  V30 28 Cl -1.299 -7.5 0.0 0
M  V30 END ATOM
M  V30 BEGIN BOND
M  V30 1 1 1 2
M  V30 2 2 2 3
M  V30 3 1 2 4
M  V30 4 1 3 5
M  V30 5 1 3 6
M  V30 6 2 4 7
M  V30 7 2 5 8
M  V30 8 2 5 9
M  V30 9 1 5 10
M  V30 10 2 6 11
M  V30 11 1 7 12
M  V30 12 1 10 13
M  V30 13 2 13 14
M  V30 14 1 13 15
M  V30 15 1 14 16
M  V30 16 2 15 17
M  V30 17 1 16 18
M  V30 18 2 16 19
M  V30 19 1 18 20
M  V30 20 1 19 21
M  V30 21 1 21 22
M  V30 22 2 22 23
M  V30 23 1 22 24
M  V30 24 1 23 25
M  V30 25 2 24 26
M  V30 26 2 25 27
M  V30 27 1 26 28
M  V30 28 1 7 11
M  V30 29 1 17 19
M  V30 30 1 26 27
M  V30 END BOND
M  V30 END CTAB
M  END
>  <Molecule ChEMBL ID>
CHEMBL2338487

>  <Smiles>
COc1cc(NS(=O)(=O)c2ccc(Cl)cc2Cl)ccc1Oc1cncc(Cl)c1

>  <IC50_nM>
19

>  <Assay Description>
Displacement of [3H]-rosiglitazone from GST-tagged PPARgammaLBD (unknown origin) after 1 hr by scintillation proximity assay

$$$$
CHEMBL3699417
Actelion Java MolfileCreator 2.0

  0  0  0  0  0  0              0 V3000
M  V30 BEGIN CTAB
M  V30 COUNTS 41 46 0 0 0
M  V30 BEGIN ATOM
M  V30 1 O 11.8592 -3.5669 0.0 0
M  V30 2 C 10.8811 -3.7748 0.0 0
M  V30 3 O 10.212 -3.0316 0.0 0
M  V30 4 C 10.5721 -4.7258 0.0 0
M  V30 5 C 9.5939 -4.9337 0.0 0
M  V30 6 C 11.2412 -5.469 0.0 0
M  V30 7 C 8.9248 -4.1906 0.0 0
M  V30 8 C 9.2849 -5.8848 0.0 0
M  V30 9 C 10.9322 -6.42 0.0 0
M  V30 10 C 9.2338 -3.2395 0.0 0
M  V30 11 C 7.9466 -4.3985 0.0 0
M  V30 12 C 9.954 -6.6279 0.0 0
M  V30 13 C 8.5647 -2.4964 0.0 0
M  V30 14 C 7.2775 -3.6554 0.0 0
M  V30 15 C 7.5865 -2.7043 0.0 0
M  V30 16 C 6.9174 -1.9612 0.0 0
M  V30 17 N 5.9392 -2.1691 0.0 0
M  V30 18 C 5.1961 -1.4999 0.0 0
M  V30 19 C 5.5325 -3.0826 0.0 0
M  V30 20 C 4.3301 -1.9999 0.0 0
M  V30 21 C 5.1961 -0.4999 0.0 0
M  V30 22 C 4.538 -2.9781 0.0 0
M  V30 23 C 6.0325 -3.9487 0.0 0
M  V30 24 C 3.4641 -1.5 0.0 0
M  V30 25 C 4.3301 0.0 0.0 0
M  V30 26 C 3.8689 -3.7212 0.0 0
M  V30 27 C 3.4641 -0.5 0.0 0
M  V30 28 C 2.598 0.0 0.0 0
M  V30 29 O 2.598 1.0 0.0 0
M  V30 30 N 1.732 -0.5 0.0 0
M  V30 31 C 0.866 0.0 0.0 0 CFG=2
M  V30 32 C 0.866 1.0 0.0 0
M  V30 33 C 0.0 -0.5 0.0 0
M  V30 34 N 1.732 1.4999 0.0 0
M  V30 35 C 0.0 1.4999 0.0 0
M  V30 36 C 1.732 2.5 0.0 0
M  V30 37 C 0.0 2.5 0.0 0
M  V30 38 C 0.866 3.0 0.0 0
M  V30 39 C 2.598 3.0 0.0 0
M  V30 40 C 3.598 3.0 0.0 0
M  V30 41 C 3.098 3.866 0.0 0
M  V30 END ATOM
M  V30 BEGIN BOND
M  V30 1 2 1 2
M  V30 2 1 2 3
M  V30 3 1 2 4
M  V30 4 2 4 5
M  V30 5 1 4 6
M  V30 6 1 5 7
M  V30 7 1 5 8
M  V30 8 2 6 9
M  V30 9 2 7 10
M  V30 10 1 7 11
M  V30 11 2 8 12
M  V30 12 1 10 13
M  V30 13 2 11 14
M  V30 14 2 13 15
M  V30 15 1 15 16
M  V30 16 1 16 17
M  V30 17 1 17 18
M  V30 18 1 17 19
M  V30 19 2 18 20
M  V30 20 1 18 21
M  V30 21 2 19 22
M  V30 22 1 19 23
M  V30 23 1 20 24
M  V30 24 2 21 25
M  V30 25 1 22 26
M  V30 26 2 24 27
M  V30 27 1 27 28
M  V30 28 2 28 29
M  V30 29 1 28 30
M  V30 30 1 30 31
M  V30 31 1 31 32
M  V30 32 1 31 33 CFG=1
M  V30 33 2 32 34
M  V30 34 1 32 35
M  V30 35 1 34 36
M  V30 36 2 35 37
M  V30 37 2 36 38
M  V30 38 1 36 39
M  V30 39 1 39 40
M  V30 40 1 39 41
M  V30 41 1 9 12
M  V30 42 1 14 15
M  V30 43 1 20 22
M  V30 44 1 25 27
M  V30 45 1 37 38
M  V30 46 1 40 41
M  V30 END BOND
M  V30 BEGIN COLLECTION
M  V30 MDLV30/STEABS ATOMS=(1 31)
M  V30 END COLLECTION
M  V30 END CTAB
M  END
>  <Molecule ChEMBL ID>
CHEMBL3699417

>  <Smiles>
Cc1c(C)n(Cc2ccc(-c3ccccc3C(=O)O)cc2)c2ccc(C(=O)N[C@@H](C)c3cccc(C4CC4)n3)cc12

>  <IC50_nM>
19

>  <Assay Description>
Lanthascreen Competitive Binding Assay: The assay was performed according to manufacturer protocol. A mixture of nM GST-PPARG-LBD, 5 nM Tb-GST-antibody, 5 nM Fluormone Pan-PPAR Green, and serial dilutions of the experimental compound, beginning at 10 ׬M downwards, was added to wells of black 384-well low-volume plates (Greiner) to a total volume of 18 ׬L. All dilutions were made in TR-FRET assay buffer C. DMSO at 2% final concentration was used as a no-ligand control. Experiment was performed in triplicate, and incubated for 2 hours in the dark prior to assay read in Perkin Elmer ViewLux ultra HTS microplate reader. FRET signal was measured by excitation at 340 nm and emission at 520 nm for fluorescein and 490 nm for terbium. Fold change over DMSO was calculated using GraphPad Prism Software (La Jolla, Calif.) by calculating 520 nm/490 nm ratio. Graphs were plotted as fold change of FRET signal for compound treatment over DMSO-only control.

$$$$
CHEMBL519504
Actelion Java MolfileCreator 2.0

  0  0  0  0  0  0              0 V3000
M  V30 BEGIN CTAB
M  V30 COUNTS 31 34 0 0 0
M  V30 BEGIN ATOM
M  V30 1 S 4.1222 -2.9781 0.0 0
M  V30 2 C 4.3301 -2.0 0.0 0
M  V30 3 C 3.1276 -3.0826 0.0 0
M  V30 4 C 5.1961 -1.4999 0.0 0
M  V30 5 C 3.4641 -1.5 0.0 0
M  V30 6 C 2.7209 -2.1691 0.0 0
M  V30 7 C 5.1961 -0.4999 0.0 0
M  V30 8 C 6.0621 -1.9999 0.0 0
M  V30 9 C 3.4641 -0.5 0.0 0
M  V30 10 C 4.3301 0.0 0.0 0
M  V30 11 C 6.9282 -1.5 0.0 0 CFG=2
M  V30 12 O 2.598 0.0 0.0 0
M  V30 13 O 6.9282 -0.5 0.0 0
M  V30 14 C 7.7942 -2.0 0.0 0
M  V30 15 C 1.732 -0.5 0.0 0
M  V30 16 C 6.0621 0.0 0.0 0
M  V30 17 O 7.7942 -3.0 0.0 0
M  V30 18 O 8.6602 -1.5 0.0 0
M  V30 19 C 0.866 0.0 0.0 0
M  V30 20 C 0.0 -0.5 0.0 0
M  V30 21 N -0.9135 -0.0932 0.0 0
M  V30 22 C -0.1045 -1.4945 0.0 0
M  V30 23 C -1.5826 -0.8364 0.0 0
M  V30 24 O -1.0826 -1.7024 0.0 0
M  V30 25 C 0.6386 -2.1636 0.0 0
M  V30 26 C -2.5771 -0.7318 0.0 0
M  V30 27 C -2.9839 0.1816 0.0 0
M  V30 28 C -3.1649 -1.5408 0.0 0
M  V30 29 C -3.9784 0.2861 0.0 0
M  V30 30 C -4.1595 -1.4363 0.0 0
M  V30 31 C -4.5662 -0.5228 0.0 0
M  V30 END ATOM
M  V30 BEGIN BOND
M  V30 1 1 1 2
M  V30 2 1 1 3
M  V30 3 2 2 4
M  V30 4 1 2 5
M  V30 5 2 3 6
M  V30 6 1 4 7
M  V30 7 1 4 8
M  V30 8 2 5 9
M  V30 9 2 7 10
M  V30 10 1 8 11
M  V30 11 1 9 12
M  V30 12 1 11 13 CFG=3
M  V30 13 1 11 14
M  V30 14 1 12 15
M  V30 15 1 13 16
M  V30 16 2 14 17
M  V30 17 1 14 18
M  V30 18 1 15 19
M  V30 19 1 19 20
M  V30 20 1 20 21
M  V30 21 2 20 22
M  V30 22 2 21 23
M  V30 23 1 22 24
M  V30 24 1 22 25
M  V30 25 1 23 26
M  V30 26 2 26 27
M  V30 27 1 26 28
M  V30 28 1 27 29
M  V30 29 2 28 30
M  V30 30 2 29 31
M  V30 31 1 5 6
M  V30 32 1 9 10
M  V30 33 1 23 24
M  V30 34 1 30 31
M  V30 END BOND
M  V30 BEGIN COLLECTION
M  V30 MDLV30/STEABS ATOMS=(1 11)
M  V30 END COLLECTION
M  V30 END CTAB
M  END
>  <Molecule ChEMBL ID>
CHEMBL519504

>  <Smiles>
CO[C@@H](Cc1ccc(OCCc2nc(-c3ccccc3)oc2C)c2ccsc12)C(=O)O

>  <IC50_nM>
19

>  <Assay Description>
Displacement of radio labeled 2(S)-(2-benzoyl-phenylamino)-3-{4-[1,1-ditritio-2-(5-methyl-2-phenyl-oxazol-4-yl)-ethoxy]-phenyl}-propionic acid from GST-fused human PPARgamma expressed in Escherichia coli BL21 cells by scintillation proximity assay

$$$$
CHEMBL2338480
Actelion Java MolfileCreator 2.0

  0  0  0  0  0  0              0 V3000
M  V30 BEGIN CTAB
M  V30 COUNTS 28 30 0 0 0
M  V30 BEGIN ATOM
M  V30 1 Cl 7.7942 -0.75 0.0 0
M  V30 2 C 6.4952 0.0 0.0 0
M  V30 3 C 6.4952 1.5 0.0 0
M  V30 4 C 5.1961 -0.75 0.0 0
M  V30 5 O 7.7942 2.25 0.0 0
M  V30 6 C 5.1961 2.25 0.0 0
M  V30 7 C 3.8971 0.0 0.0 0
M  V30 8 C 7.7942 3.75 0.0 0
M  V30 9 Cl 5.1961 3.75 0.0 0
M  V30 10 C 3.8971 1.5 0.0 0
M  V30 11 N 2.598 -0.75 0.0 0
M  V30 12 C 9.0932 4.5 0.0 0
M  V30 13 C 6.4952 4.5 0.0 0
M  V30 14 S 1.299 0.0 0.0 0
M  V30 15 N 9.0932 6.0 0.0 0
M  V30 16 C 6.4952 6.0 0.0 0
M  V30 17 O 2.049 1.299 0.0 0
M  V30 18 O 0.549 1.299 0.0 0
M  V30 19 C 0.0 -0.75 0.0 0
M  V30 20 C 7.7942 6.75 0.0 0
M  V30 21 C 5.1961 6.75 0.0 0
M  V30 22 C -1.299 0.0 0.0 0
M  V30 23 C 0.0 -2.25 0.0 0
M  V30 24 Cl -1.299 1.5 0.0 0
M  V30 25 C -2.598 -0.75 0.0 0
M  V30 26 C -1.299 -3.0 0.0 0
M  V30 27 C -2.598 -2.25 0.0 0
M  V30 28 Cl -3.8971 -3.0 0.0 0
M  V30 END ATOM
M  V30 BEGIN BOND
M  V30 1 1 1 2
M  V30 2 2 2 3
M  V30 3 1 2 4
M  V30 4 1 3 5
M  V30 5 1 3 6
M  V30 6 2 4 7
M  V30 7 1 5 8
M  V30 8 1 6 9
M  V30 9 2 6 10
M  V30 10 1 7 11
M  V30 11 2 8 12
M  V30 12 1 8 13
M  V30 13 1 11 14
M  V30 14 1 12 15
M  V30 15 2 13 16
M  V30 16 2 14 17
M  V30 17 2 14 18
M  V30 18 1 14 19
M  V30 19 2 15 20
M  V30 20 1 16 21
M  V30 21 2 19 22
M  V30 22 1 19 23
M  V30 23 1 22 24
M  V30 24 1 22 25
M  V30 25 2 23 26
M  V30 26 2 25 27
M  V30 27 1 27 28
M  V30 28 1 7 10
M  V30 29 1 16 20
M  V30 30 1 26 27
M  V30 END BOND
M  V30 END CTAB
M  END
>  <Molecule ChEMBL ID>
CHEMBL2338480

>  <Smiles>
Cc1cncc(Oc2c(Cl)cc(NS(=O)(=O)c3ccc(Cl)cc3Cl)cc2Cl)c1

>  <IC50_nM>
19

>  <Assay Description>
Displacement of [3H]-rosiglitazone from GST-tagged PPARgammaLBD (unknown origin) after 1 hr by scintillation proximity assay

$$$$
CHEMBL3699403
Actelion Java MolfileCreator 2.0

  0  0  0  0  0  0              0 V3000
M  V30 BEGIN CTAB
M  V30 COUNTS 41 46 0 0 0
M  V30 BEGIN ATOM
M  V30 1 O 11.8592 -3.5669 0.0 0
M  V30 2 C 10.8811 -3.7748 0.0 0
M  V30 3 O 10.212 -3.0316 0.0 0
M  V30 4 C 10.5721 -4.7258 0.0 0
M  V30 5 C 9.5939 -4.9337 0.0 0
M  V30 6 C 11.2412 -5.469 0.0 0
M  V30 7 C 8.9248 -4.1906 0.0 0
M  V30 8 C 9.2849 -5.8848 0.0 0
M  V30 9 C 10.9322 -6.42 0.0 0
M  V30 10 C 9.2338 -3.2395 0.0 0
M  V30 11 C 7.9466 -4.3985 0.0 0
M  V30 12 C 9.954 -6.6279 0.0 0
M  V30 13 C 8.5647 -2.4964 0.0 0
M  V30 14 C 7.2775 -3.6554 0.0 0
M  V30 15 C 7.5865 -2.7043 0.0 0
M  V30 16 C 6.9174 -1.9612 0.0 0
M  V30 17 N 5.9392 -2.1691 0.0 0
M  V30 18 C 5.1961 -1.4999 0.0 0
M  V30 19 C 5.5325 -3.0826 0.0 0
M  V30 20 C 4.3301 -1.9999 0.0 0
M  V30 21 C 5.1961 -0.4999 0.0 0
M  V30 22 C 4.538 -2.9781 0.0 0
M  V30 23 C 6.0325 -3.9487 0.0 0
M  V30 24 C 3.4641 -1.5 0.0 0
M  V30 25 C 4.3301 0.0 0.0 0
M  V30 26 C 3.8689 -3.7212 0.0 0
M  V30 27 C 3.4641 -0.5 0.0 0
M  V30 28 C 2.598 0.0 0.0 0
M  V30 29 O 2.598 1.0 0.0 0
M  V30 30 N 1.732 -0.5 0.0 0
M  V30 31 C 0.866 0.0 0.0 0 CFG=2
M  V30 32 C 0.866 1.0 0.0 0
M  V30 33 C 0.0 -0.5 0.0 0
M  V30 34 C 1.732 1.4999 0.0 0
M  V30 35 C 0.0 1.4999 0.0 0
M  V30 36 N 1.732 2.5 0.0 0
M  V30 37 C 0.0 2.5 0.0 0
M  V30 38 C 0.866 3.0 0.0 0
M  V30 39 C -0.866 2.9999 0.0 0
M  V30 40 C -1.366 3.866 0.0 0
M  V30 41 C -1.866 2.9999 0.0 0
M  V30 END ATOM
M  V30 BEGIN BOND
M  V30 1 2 1 2
M  V30 2 1 2 3
M  V30 3 1 2 4
M  V30 4 2 4 5
M  V30 5 1 4 6
M  V30 6 1 5 7
M  V30 7 1 5 8
M  V30 8 2 6 9
M  V30 9 2 7 10
M  V30 10 1 7 11
M  V30 11 2 8 12
M  V30 12 1 10 13
M  V30 13 2 11 14
M  V30 14 2 13 15
M  V30 15 1 15 16
M  V30 16 1 16 17
M  V30 17 1 17 18
M  V30 18 1 17 19
M  V30 19 2 18 20
M  V30 20 1 18 21
M  V30 21 2 19 22
M  V30 22 1 19 23
M  V30 23 1 20 24
M  V30 24 2 21 25
M  V30 25 1 22 26
M  V30 26 2 24 27
M  V30 27 1 27 28
M  V30 28 2 28 29
M  V30 29 1 28 30
M  V30 30 1 30 31
M  V30 31 1 31 32
M  V30 32 1 31 33 CFG=1
M  V30 33 2 32 34
M  V30 34 1 32 35
M  V30 35 1 34 36
M  V30 36 2 35 37
M  V30 37 2 36 38
M  V30 38 1 37 39
M  V30 39 1 39 40
M  V30 40 1 39 41
M  V30 41 1 9 12
M  V30 42 1 14 15
M  V30 43 1 20 22
M  V30 44 1 25 27
M  V30 45 1 37 38
M  V30 46 1 40 41
M  V30 END BOND
M  V30 BEGIN COLLECTION
M  V30 MDLV30/STERAC1 ATOMS=(1 31)
M  V30 END COLLECTION
M  V30 END CTAB
M  END
>  <Molecule ChEMBL ID>
CHEMBL3699403

>  <Smiles>
Cc1c(C)n(Cc2ccc(-c3ccccc3C(=O)O)cc2)c2ccc(C(=O)NC(C)c3cncc(C4CC4)c3)cc12

>  <IC50_nM>
19

>  <Assay Description>
Lanthascreen Competitive Binding Assay: The assay was performed according to manufacturer protocol. A mixture of nM GST-PPARG-LBD, 5 nM Tb-GST-antibody, 5 nM Fluormone Pan-PPAR Green, and serial dilutions of the experimental compound, beginning at 10 ׬M downwards, was added to wells of black 384-well low-volume plates (Greiner) to a total volume of 18 ׬L. All dilutions were made in TR-FRET assay buffer C. DMSO at 2% final concentration was used as a no-ligand control. Experiment was performed in triplicate, and incubated for 2 hours in the dark prior to assay read in Perkin Elmer ViewLux ultra HTS microplate reader. FRET signal was measured by excitation at 340 nm and emission at 520 nm for fluorescein and 490 nm for terbium. Fold change over DMSO was calculated using GraphPad Prism Software (La Jolla, Calif.) by calculating 520 nm/490 nm ratio. Graphs were plotted as fold change of FRET signal for compound treatment over DMSO-only control.

$$$$
CHEMBL215701
Actelion Java MolfileCreator 2.0

  0  0  0  0  0  0              0 V3000
M  V30 BEGIN CTAB
M  V30 COUNTS 33 35 0 0 0
M  V30 BEGIN ATOM
M  V30 1 Cl 7.7942 -2.0 0.0 0
M  V30 2 C 6.9282 -1.5 0.0 0
M  V30 3 C 6.9282 -0.5 0.0 0
M  V30 4 C 6.0621 -2.0 0.0 0
M  V30 5 C 6.0621 0.0 0.0 0
M  V30 6 C 5.1961 -1.5 0.0 0
M  V30 7 O 6.0621 1.0 0.0 0
M  V30 8 C 5.1961 -0.5 0.0 0
M  V30 9 C 5.1961 1.5 0.0 0
M  V30 10 O 4.3301 0.0 0.0 0
M  V30 11 C 5.1961 2.5 0.0 0
M  V30 12 C 4.3301 1.0 0.0 0
M  V30 13 C 3.4641 -0.5 0.0 0 CFG=1
M  V30 14 C 4.3301 3.0 0.0 0
M  V30 15 C 3.4641 1.5 0.0 0
M  V30 16 C 2.598 0.0 0.0 0
M  V30 17 C 3.4641 -1.5 0.0 0
M  V30 18 C 3.4641 2.5 0.0 0
M  V30 19 C 1.732 -0.5 0.0 0
M  V30 20 O 0.866 0.0 0.0 0
M  V30 21 C 0.0 -0.5 0.0 0
M  V30 22 C -0.866 0.0 0.0 0
M  V30 23 C 0.0 -1.4999 0.0 0
M  V30 24 C -1.732 -0.4999 0.0 0
M  V30 25 C -0.866 -1.9999 0.0 0
M  V30 26 C -1.732 -1.4999 0.0 0
M  V30 27 C -2.598 0.0 0.0 0
M  V30 28 C -2.598 -1.9999 0.0 0
M  V30 29 C -3.4641 -0.4999 0.0 0
M  V30 30 C -2.598 -2.9999 0.0 0
M  V30 31 C -3.4641 -3.4999 0.0 0
M  V30 32 O -4.3301 -2.9999 0.0 0
M  V30 33 O -3.4641 -4.4999 0.0 0
M  V30 END ATOM
M  V30 BEGIN BOND
M  V30 1 1 1 2
M  V30 2 2 2 3
M  V30 3 1 2 4
M  V30 4 1 3 5
M  V30 5 2 4 6
M  V30 6 1 5 7
M  V30 7 2 5 8
M  V30 8 1 7 9
M  V30 9 1 8 10
M  V30 10 2 9 11
M  V30 11 1 9 12
M  V30 12 1 10 13
M  V30 13 1 11 14
M  V30 14 2 12 15
M  V30 15 1 13 16
M  V30 16 1 13 17 CFG=3
M  V30 17 2 14 18
M  V30 18 1 16 19
M  V30 19 1 19 20
M  V30 20 1 20 21
M  V30 21 2 21 22
M  V30 22 1 21 23
M  V30 23 1 22 24
M  V30 24 2 23 25
M  V30 25 2 24 26
M  V30 26 1 24 27
M  V30 27 1 26 28
M  V30 28 1 27 29
M  V30 29 1 28 30
M  V30 30 1 30 31
M  V30 31 2 31 32
M  V30 32 1 31 33
M  V30 33 1 6 8
M  V30 34 1 15 18
M  V30 35 1 25 26
M  V30 END BOND
M  V30 BEGIN COLLECTION
M  V30 MDLV30/STEABS ATOMS=(1 13)
M  V30 END COLLECTION
M  V30 END CTAB
M  END
>  <Molecule ChEMBL ID>
CHEMBL215701

>  <Smiles>
CCc1cc(OCC[C@@H](C)Oc2ccc(Cl)cc2Oc2ccccc2)ccc1CCC(=O)O

>  <IC50_nM>
19

>  <Assay Description>
Displacement of [3H]2-methyl-2-(4-{3-[propyl-(5-pyridin-2-yl-thiophene-2-sulfonyl)-amino]-propyl}-phenoxy)-propionic acid from human PPARgamma by SPA

$$$$
CHEMBL331071
Actelion Java MolfileCreator 2.0

  0  0  0  0  0  0              0 V3000
M  V30 BEGIN CTAB
M  V30 COUNTS 35 38 0 0 0
M  V30 BEGIN ATOM
M  V30 1 S 8.7077 -0.4067 0.0 0
M  V30 2 C 9.3769 0.3364 0.0 0
M  V30 3 C 7.7942 0.0 0.0 0 CFG=2
M  V30 4 O 10.3714 0.2318 0.0 0
M  V30 5 N 8.8769 1.2024 0.0 0
M  V30 6 C 6.9282 -0.5 0.0 0
M  V30 7 C 7.8987 0.9945 0.0 0
M  V30 8 C 6.0621 0.0 0.0 0
M  V30 9 C 6.9282 -1.5 0.0 0
M  V30 10 O 7.1556 1.6636 0.0 0
M  V30 11 C 5.1961 -0.5 0.0 0
M  V30 12 C 6.0621 -2.0 0.0 0
M  V30 13 O 4.3301 0.0 0.0 0
M  V30 14 C 5.1961 -1.5 0.0 0
M  V30 15 C 3.4641 -0.5 0.0 0
M  V30 16 C 2.598 0.0 0.0 0
M  V30 17 C 1.732 -0.5 0.0 0
M  V30 18 O 0.866 0.0 0.0 0
M  V30 19 C 0.0 -0.5 0.0 0
M  V30 20 C -0.866 0.0 0.0 0
M  V30 21 C 0.0 -1.4999 0.0 0
M  V30 22 C -1.732 -0.4999 0.0 0
M  V30 23 C -0.866 1.0 0.0 0
M  V30 24 C -0.866 -1.9999 0.0 0
M  V30 25 C -1.732 -1.4999 0.0 0
M  V30 26 C 0.0 1.5 0.0 0
M  V30 27 C -2.598 -1.9999 0.0 0
M  V30 28 C 0.0 2.5 0.0 0
M  V30 29 O -3.4641 -1.4999 0.0 0
M  V30 30 C -2.598 -2.9999 0.0 0
M  V30 31 C -3.4641 -3.4999 0.0 0
M  V30 32 C -1.732 -3.4999 0.0 0
M  V30 33 C -3.4641 -4.4999 0.0 0
M  V30 34 C -1.732 -4.4999 0.0 0
M  V30 35 C -2.598 -4.9999 0.0 0
M  V30 END ATOM
M  V30 BEGIN BOND
M  V30 1 1 1 2
M  V30 2 1 1 3
M  V30 3 2 2 4
M  V30 4 1 2 5
M  V30 5 1 3 6 CFG=3
M  V30 6 1 3 7
M  V30 7 2 6 8
M  V30 8 1 6 9
M  V30 9 2 7 10
M  V30 10 1 8 11
M  V30 11 2 9 12
M  V30 12 1 11 13
M  V30 13 2 11 14
M  V30 14 1 13 15
M  V30 15 1 15 16
M  V30 16 1 16 17
M  V30 17 1 17 18
M  V30 18 1 18 19
M  V30 19 2 19 20
M  V30 20 1 19 21
M  V30 21 1 20 22
M  V30 22 1 20 23
M  V30 23 2 21 24
M  V30 24 2 22 25
M  V30 25 1 23 26
M  V30 26 1 25 27
M  V30 27 1 26 28
M  V30 28 2 27 29
M  V30 29 1 27 30
M  V30 30 2 30 31
M  V30 31 1 30 32
M  V30 32 1 31 33
M  V30 33 2 32 34
M  V30 34 2 33 35
M  V30 35 1 5 7
M  V30 36 1 12 14
M  V30 37 1 24 25
M  V30 38 1 34 35
M  V30 END BOND
M  V30 BEGIN COLLECTION
M  V30 MDLV30/STERAC1 ATOMS=(1 3)
M  V30 END COLLECTION
M  V30 END CTAB
M  END
>  <Molecule ChEMBL ID>
CHEMBL331071

>  <Smiles>
CCCc1cc(C(=O)c2ccccc2)ccc1OCCCOc1cccc(C2SC(=O)NC2=O)c1

>  <IC50_nM>
19

>  <Assay Description>
Displacement of radio-labeled full agonist from PPARgamma receptor

$$$$
CHEMBL3699345
Actelion Java MolfileCreator 2.0

  0  0  0  0  0  0              0 V3000
M  V30 BEGIN CTAB
M  V30 COUNTS 42 46 0 0 0
M  V30 BEGIN ATOM
M  V30 1 O 11.8592 -3.5669 0.0 0
M  V30 2 C 10.8811 -3.7748 0.0 0
M  V30 3 O 10.212 -3.0316 0.0 0
M  V30 4 C 10.5721 -4.7258 0.0 0
M  V30 5 C 9.5939 -4.9337 0.0 0
M  V30 6 C 11.2412 -5.469 0.0 0
M  V30 7 C 8.9248 -4.1906 0.0 0
M  V30 8 C 9.2849 -5.8848 0.0 0
M  V30 9 C 10.9322 -6.42 0.0 0
M  V30 10 C 9.2338 -3.2395 0.0 0
M  V30 11 C 7.9466 -4.3985 0.0 0
M  V30 12 C 9.954 -6.6279 0.0 0
M  V30 13 C 8.5647 -2.4964 0.0 0
M  V30 14 C 7.2775 -3.6554 0.0 0
M  V30 15 C 7.5865 -2.7043 0.0 0
M  V30 16 C 6.9174 -1.9612 0.0 0
M  V30 17 N 5.9392 -2.1691 0.0 0
M  V30 18 C 5.1961 -1.4999 0.0 0
M  V30 19 C 5.5325 -3.0826 0.0 0
M  V30 20 C 4.3301 -1.9999 0.0 0
M  V30 21 C 5.1961 -0.4999 0.0 0
M  V30 22 C 4.538 -2.9781 0.0 0
M  V30 23 C 6.0325 -3.9487 0.0 0
M  V30 24 C 3.4641 -1.5 0.0 0
M  V30 25 C 4.3301 0.0 0.0 0
M  V30 26 C 3.8689 -3.7212 0.0 0
M  V30 27 C 3.4641 -0.5 0.0 0
M  V30 28 C 2.598 0.0 0.0 0
M  V30 29 O 2.598 1.0 0.0 0
M  V30 30 N 1.732 -0.5 0.0 0
M  V30 31 C 0.866 0.0 0.0 0 CFG=2
M  V30 32 C 0.866 1.0 0.0 0
M  V30 33 C 0.0 -0.5 0.0 0
M  V30 34 C 1.732 1.5 0.0 0
M  V30 35 C 0.0 1.4999 0.0 0
M  V30 36 C 1.732 2.5 0.0 0
M  V30 37 C 0.0 2.5 0.0 0
M  V30 38 O 2.598 3.0 0.0 0
M  V30 39 C 0.866 3.0 0.0 0
M  V30 40 C 3.4641 2.5 0.0 0
M  V30 41 C 3.4641 1.5 0.0 0
M  V30 42 C 4.3301 3.0 0.0 0
M  V30 END ATOM
M  V30 BEGIN BOND
M  V30 1 2 1 2
M  V30 2 1 2 3
M  V30 3 1 2 4
M  V30 4 2 4 5
M  V30 5 1 4 6
M  V30 6 1 5 7
M  V30 7 1 5 8
M  V30 8 2 6 9
M  V30 9 2 7 10
M  V30 10 1 7 11
M  V30 11 2 8 12
M  V30 12 1 10 13
M  V30 13 2 11 14
M  V30 14 2 13 15
M  V30 15 1 15 16
M  V30 16 1 16 17
M  V30 17 1 17 18
M  V30 18 1 17 19
M  V30 19 2 18 20
M  V30 20 1 18 21
M  V30 21 2 19 22
M  V30 22 1 19 23
M  V30 23 1 20 24
M  V30 24 2 21 25
M  V30 25 1 22 26
M  V30 26 2 24 27
M  V30 27 1 27 28
M  V30 28 2 28 29
M  V30 29 1 28 30
M  V30 30 1 30 31
M  V30 31 1 31 32
M  V30 32 1 31 33 CFG=1
M  V30 33 2 32 34
M  V30 34 1 32 35
M  V30 35 1 34 36
M  V30 36 2 35 37
M  V30 37 1 36 38
M  V30 38 2 36 39
M  V30 39 1 38 40
M  V30 40 1 40 41
M  V30 41 1 40 42
M  V30 42 1 9 12
M  V30 43 1 14 15
M  V30 44 1 20 22
M  V30 45 1 25 27
M  V30 46 1 37 39
M  V30 END BOND
M  V30 BEGIN COLLECTION
M  V30 MDLV30/STEABS ATOMS=(1 31)
M  V30 END COLLECTION
M  V30 END CTAB
M  END
>  <Molecule ChEMBL ID>
CHEMBL3699345

>  <Smiles>
Cc1c(C)n(Cc2ccc(-c3ccccc3C(=O)O)cc2)c2ccc(C(=O)N[C@@H](C)c3cccc(OC(C)C)c3)cc12

>  <IC50_nM>
19

>  <Assay Description>
Lanthascreen Competitive Binding Assay: The assay was performed according to manufacturer protocol. A mixture of nM GST-PPARG-LBD, 5 nM Tb-GST-antibody, 5 nM Fluormone Pan-PPAR Green, and serial dilutions of the experimental compound, beginning at 10 ׬M downwards, was added to wells of black 384-well low-volume plates (Greiner) to a total volume of 18 ׬L. All dilutions were made in TR-FRET assay buffer C. DMSO at 2% final concentration was used as a no-ligand control. Experiment was performed in triplicate, and incubated for 2 hours in the dark prior to assay read in Perkin Elmer ViewLux ultra HTS microplate reader. FRET signal was measured by excitation at 340 nm and emission at 520 nm for fluorescein and 490 nm for terbium. Fold change over DMSO was calculated using GraphPad Prism Software (La Jolla, Calif.) by calculating 520 nm/490 nm ratio. Graphs were plotted as fold change of FRET signal for compound treatment over DMSO-only control.

$$$$
CHEMBL2037183
Actelion Java MolfileCreator 2.0

  0  0  0  0  0  0              0 V3000
M  V30 BEGIN CTAB
M  V30 COUNTS 35 38 0 0 0
M  V30 BEGIN ATOM
M  V30 1 S 8.7077 -0.4067 0.0 0
M  V30 2 C 9.3769 0.3364 0.0 0
M  V30 3 C 7.7942 0.0 0.0 0 CFG=1
M  V30 4 O 10.3714 0.2318 0.0 0
M  V30 5 N 8.8769 1.2024 0.0 0
M  V30 6 C 6.9282 -0.5 0.0 0
M  V30 7 C 7.8987 0.9945 0.0 0
M  V30 8 C 6.0621 0.0 0.0 0
M  V30 9 C 6.9282 -1.5 0.0 0
M  V30 10 O 7.1556 1.6636 0.0 0
M  V30 11 C 5.1961 -0.5 0.0 0
M  V30 12 C 6.0621 -2.0 0.0 0
M  V30 13 O 4.3301 0.0 0.0 0
M  V30 14 C 5.1961 -1.5 0.0 0
M  V30 15 C 3.4641 -0.5 0.0 0
M  V30 16 C 2.598 0.0 0.0 0
M  V30 17 C 1.732 -0.5 0.0 0
M  V30 18 O 0.866 0.0 0.0 0
M  V30 19 C 0.0 -0.5 0.0 0
M  V30 20 C -0.866 0.0 0.0 0
M  V30 21 C 0.0 -1.4999 0.0 0
M  V30 22 C -1.732 -0.4999 0.0 0
M  V30 23 C -0.866 1.0 0.0 0
M  V30 24 C -0.866 -1.9999 0.0 0
M  V30 25 C -1.732 -1.4999 0.0 0
M  V30 26 C 0.0 1.5 0.0 0
M  V30 27 C -2.598 -1.9999 0.0 0
M  V30 28 C 0.0 2.5 0.0 0
M  V30 29 O -3.4641 -1.4999 0.0 0
M  V30 30 C -2.598 -2.9999 0.0 0
M  V30 31 C -3.4641 -3.4999 0.0 0
M  V30 32 C -1.732 -3.4999 0.0 0
M  V30 33 C -3.4641 -4.4999 0.0 0
M  V30 34 C -1.732 -4.4999 0.0 0
M  V30 35 C -2.598 -4.9999 0.0 0
M  V30 END ATOM
M  V30 BEGIN BOND
M  V30 1 1 1 2
M  V30 2 1 1 3
M  V30 3 2 2 4
M  V30 4 1 2 5
M  V30 5 1 3 6 CFG=1
M  V30 6 1 3 7
M  V30 7 2 6 8
M  V30 8 1 6 9
M  V30 9 2 7 10
M  V30 10 1 8 11
M  V30 11 2 9 12
M  V30 12 1 11 13
M  V30 13 2 11 14
M  V30 14 1 13 15
M  V30 15 1 15 16
M  V30 16 1 16 17
M  V30 17 1 17 18
M  V30 18 1 18 19
M  V30 19 2 19 20
M  V30 20 1 19 21
M  V30 21 1 20 22
M  V30 22 1 20 23
M  V30 23 2 21 24
M  V30 24 2 22 25
M  V30 25 1 23 26
M  V30 26 1 25 27
M  V30 27 1 26 28
M  V30 28 2 27 29
M  V30 29 1 27 30
M  V30 30 2 30 31
M  V30 31 1 30 32
M  V30 32 1 31 33
M  V30 33 2 32 34
M  V30 34 2 33 35
M  V30 35 1 5 7
M  V30 36 1 12 14
M  V30 37 1 24 25
M  V30 38 1 34 35
M  V30 END BOND
M  V30 BEGIN COLLECTION
M  V30 MDLV30/STEABS ATOMS=(1 3)
M  V30 END COLLECTION
M  V30 END CTAB
M  END
>  <Molecule ChEMBL ID>
CHEMBL2037183

>  <Smiles>
CCCc1cc(C(=O)c2ccccc2)ccc1OCCCOc1cccc([C@@H]2SC(=O)NC2=O)c1

>  <IC50_nM>
19.01

>  <Assay Description>
Agonist activity at PPARgamma

$$$$
CHEMBL215701
Actelion Java MolfileCreator 2.0

  0  0  0  0  0  0              0 V3000
M  V30 BEGIN CTAB
M  V30 COUNTS 33 35 0 0 0
M  V30 BEGIN ATOM
M  V30 1 Cl 7.7942 -2.0 0.0 0
M  V30 2 C 6.9282 -1.5 0.0 0
M  V30 3 C 6.9282 -0.5 0.0 0
M  V30 4 C 6.0621 -2.0 0.0 0
M  V30 5 C 6.0621 0.0 0.0 0
M  V30 6 C 5.1961 -1.5 0.0 0
M  V30 7 O 6.0621 1.0 0.0 0
M  V30 8 C 5.1961 -0.5 0.0 0
M  V30 9 C 5.1961 1.5 0.0 0
M  V30 10 O 4.3301 0.0 0.0 0
M  V30 11 C 5.1961 2.5 0.0 0
M  V30 12 C 4.3301 1.0 0.0 0
M  V30 13 C 3.4641 -0.5 0.0 0 CFG=1
M  V30 14 C 4.3301 3.0 0.0 0
M  V30 15 C 3.4641 1.5 0.0 0
M  V30 16 C 2.598 0.0 0.0 0
M  V30 17 C 3.4641 -1.5 0.0 0
M  V30 18 C 3.4641 2.5 0.0 0
M  V30 19 C 1.732 -0.5 0.0 0
M  V30 20 O 0.866 0.0 0.0 0
M  V30 21 C 0.0 -0.5 0.0 0
M  V30 22 C -0.866 0.0 0.0 0
M  V30 23 C 0.0 -1.4999 0.0 0
M  V30 24 C -1.732 -0.4999 0.0 0
M  V30 25 C -0.866 -1.9999 0.0 0
M  V30 26 C -1.732 -1.4999 0.0 0
M  V30 27 C -2.598 0.0 0.0 0
M  V30 28 C -2.598 -1.9999 0.0 0
M  V30 29 C -3.4641 -0.4999 0.0 0
M  V30 30 C -2.598 -2.9999 0.0 0
M  V30 31 C -3.4641 -3.4999 0.0 0
M  V30 32 O -4.3301 -2.9999 0.0 0
M  V30 33 O -3.4641 -4.4999 0.0 0
M  V30 END ATOM
M  V30 BEGIN BOND
M  V30 1 1 1 2
M  V30 2 2 2 3
M  V30 3 1 2 4
M  V30 4 1 3 5
M  V30 5 2 4 6
M  V30 6 1 5 7
M  V30 7 2 5 8
M  V30 8 1 7 9
M  V30 9 1 8 10
M  V30 10 2 9 11
M  V30 11 1 9 12
M  V30 12 1 10 13
M  V30 13 1 11 14
M  V30 14 2 12 15
M  V30 15 1 13 16
M  V30 16 1 13 17 CFG=3
M  V30 17 2 14 18
M  V30 18 1 16 19
M  V30 19 1 19 20
M  V30 20 1 20 21
M  V30 21 2 21 22
M  V30 22 1 21 23
M  V30 23 1 22 24
M  V30 24 2 23 25
M  V30 25 2 24 26
M  V30 26 1 24 27
M  V30 27 1 26 28
M  V30 28 1 27 29
M  V30 29 1 28 30
M  V30 30 1 30 31
M  V30 31 2 31 32
M  V30 32 1 31 33
M  V30 33 1 6 8
M  V30 34 1 15 18
M  V30 35 1 25 26
M  V30 END BOND
M  V30 BEGIN COLLECTION
M  V30 MDLV30/STEABS ATOMS=(1 13)
M  V30 END COLLECTION
M  V30 END CTAB
M  END
>  <Molecule ChEMBL ID>
CHEMBL215701

>  <Smiles>
CCc1cc(OCC[C@@H](C)Oc2ccc(Cl)cc2Oc2ccccc2)ccc1CCC(=O)O

>  <IC50_nM>
19.01

>  <Assay Description>
Agonist activity at PPARgamma

$$$$
CHEMBL255930
Actelion Java MolfileCreator 2.0

  0  0  0  0  0  0              0 V3000
M  V30 BEGIN CTAB
M  V30 COUNTS 40 44 0 0 0
M  V30 BEGIN ATOM
M  V30 1 F 6.1136 -7.5772 0.0 0
M  V30 2 C 5.2 -7.9839 0.0 0
M  V30 3 F 5.6068 -8.8975 0.0 0
M  V30 4 F 4.2865 -8.3907 0.0 0
M  V30 5 C 4.7933 -7.0704 0.0 0
M  V30 6 N 5.3811 -6.2614 0.0 0
M  V30 7 C 3.7988 -6.9658 0.0 0
M  V30 8 C 4.9743 -5.3478 0.0 0
M  V30 9 C 3.392 -6.0523 0.0 0
M  V30 10 N 3.9798 -5.2433 0.0 0
M  V30 11 N 5.5621 -4.5388 0.0 0
M  V30 12 C 6.5621 -4.5388 0.0 0
M  V30 13 C 5.2531 -3.5877 0.0 0
M  V30 14 C 6.8711 -3.5877 0.0 0 CFG=1
M  V30 15 C 6.0621 -3.0 0.0 0 CFG=2
M  V30 16 C 7.8222 -3.2787 0.0 0
M  V30 17 C 6.0621 -2.0 0.0 0
M  V30 18 O 8.5653 -3.9478 0.0 0
M  V30 19 O 8.0301 -2.3006 0.0 0
M  V30 20 C 5.1961 -1.4999 0.0 0
M  V30 21 C 5.1961 -0.5 0.0 0
M  V30 22 C 4.3301 -1.9999 0.0 0
M  V30 23 C 4.3301 0.0 0.0 0
M  V30 24 C 3.4641 -1.5 0.0 0
M  V30 25 C 3.4641 -0.5 0.0 0
M  V30 26 O 2.598 0.0 0.0 0
M  V30 27 C 1.732 -0.5 0.0 0
M  V30 28 C 0.866 0.0 0.0 0
M  V30 29 C 0.0 -0.5 0.0 0
M  V30 30 N -0.9135 -0.0932 0.0 0
M  V30 31 C -0.1045 -1.4945 0.0 0
M  V30 32 C -1.5826 -0.8364 0.0 0
M  V30 33 O -1.0826 -1.7024 0.0 0
M  V30 34 C 0.6386 -2.1636 0.0 0
M  V30 35 C -2.5771 -0.7318 0.0 0
M  V30 36 C -2.9839 0.1816 0.0 0
M  V30 37 C -3.1649 -1.5408 0.0 0
M  V30 38 C -3.9784 0.2861 0.0 0
M  V30 39 C -4.1595 -1.4363 0.0 0
M  V30 40 C -4.5662 -0.5228 0.0 0
M  V30 END ATOM
M  V30 BEGIN BOND
M  V30 1 1 1 2
M  V30 2 1 2 3
M  V30 3 1 2 4
M  V30 4 1 2 5
M  V30 5 2 5 6
M  V30 6 1 5 7
M  V30 7 1 6 8
M  V30 8 2 7 9
M  V30 9 2 8 10
M  V30 10 1 8 11
M  V30 11 1 11 12
M  V30 12 1 11 13
M  V30 13 1 12 14
M  V30 14 1 13 15
M  V30 15 1 14 16 CFG=1
M  V30 16 1 15 17 CFG=1
M  V30 17 2 16 18
M  V30 18 1 16 19
M  V30 19 1 17 20
M  V30 20 2 20 21
M  V30 21 1 20 22
M  V30 22 1 21 23
M  V30 23 2 22 24
M  V30 24 2 23 25
M  V30 25 1 25 26
M  V30 26 1 26 27
M  V30 27 1 27 28
M  V30 28 1 28 29
M  V30 29 1 29 30
M  V30 30 2 29 31
M  V30 31 2 30 32
M  V30 32 1 31 33
M  V30 33 1 31 34
M  V30 34 1 32 35
M  V30 35 2 35 36
M  V30 36 1 35 37
M  V30 37 1 36 38
M  V30 38 2 37 39
M  V30 39 2 38 40
M  V30 40 1 9 10
M  V30 41 1 14 15
M  V30 42 1 24 25
M  V30 43 1 32 33
M  V30 44 1 39 40
M  V30 END BOND
M  V30 BEGIN COLLECTION
M  V30 MDLV30/STEABS ATOMS=(2 14 15)
M  V30 END COLLECTION
M  V30 END CTAB
M  END
>  <Molecule ChEMBL ID>
CHEMBL255930

>  <Smiles>
Cc1oc(-c2ccccc2)nc1CCOc1ccc(C[C@@H]2CN(c3nccc(C(F)(F)F)n3)C[C@@H]2C(=O)O)cc1

>  <IC50_nM>
20

>  <Assay Description>
Binding affinity to PPARgamma (unknown origin) using fluorescein-tagged dual PPARalpha/gamma activator by homogeneous fluorescence polarization binding assay

$$$$
CHEMBL2338477
Actelion Java MolfileCreator 2.0

  0  0  0  0  0  0              0 V3000
M  V30 BEGIN CTAB
M  V30 COUNTS 31 34 0 0 0
M  V30 BEGIN ATOM
M  V30 1 Cl 7.7942 -0.75 0.0 0
M  V30 2 C 6.4951 0.0 0.0 0
M  V30 3 C 6.4951 1.5 0.0 0
M  V30 4 C 5.1961 -0.75 0.0 0
M  V30 5 O 7.7942 2.25 0.0 0
M  V30 6 C 5.1961 2.25 0.0 0
M  V30 7 C 3.8971 0.0 0.0 0
M  V30 8 C 7.7942 3.75 0.0 0
M  V30 9 Cl 5.1961 3.75 0.0 0
M  V30 10 C 3.8971 1.5 0.0 0
M  V30 11 N 2.598 -0.75 0.0 0
M  V30 12 C 9.0932 4.5 0.0 0
M  V30 13 C 6.4951 4.5 0.0 0
M  V30 14 S 1.299 0.0 0.0 0
M  V30 15 C 9.0932 6.0 0.0 0
M  V30 16 C 6.4951 6.0 0.0 0
M  V30 17 O 2.049 1.299 0.0 0
M  V30 18 O 0.549 1.299 0.0 0
M  V30 19 C 0.0 -0.75 0.0 0
M  V30 20 C 7.7942 6.75 0.0 0
M  V30 21 C 10.3923 6.75 0.0 0
M  V30 22 C -1.299 0.0 0.0 0
M  V30 23 C 0.0 -2.25 0.0 0
M  V30 24 N 7.7942 8.25 0.0 0
M  V30 25 C 10.3923 8.25 0.0 0
M  V30 26 Cl -1.299 1.5 0.0 0
M  V30 27 C -2.598 -0.75 0.0 0
M  V30 28 C -1.299 -3.0 0.0 0
M  V30 29 C 9.0932 9.0 0.0 0
M  V30 30 C -2.598 -2.25 0.0 0
M  V30 31 Cl -3.8971 -3.0 0.0 0
M  V30 END ATOM
M  V30 BEGIN BOND
M  V30 1 1 1 2
M  V30 2 2 2 3
M  V30 3 1 2 4
M  V30 4 1 3 5
M  V30 5 1 3 6
M  V30 6 2 4 7
M  V30 7 1 5 8
M  V30 8 1 6 9
M  V30 9 2 6 10
M  V30 10 1 7 11
M  V30 11 2 8 12
M  V30 12 1 8 13
M  V30 13 1 11 14
M  V30 14 1 12 15
M  V30 15 2 13 16
M  V30 16 2 14 17
M  V30 17 2 14 18
M  V30 18 1 14 19
M  V30 19 1 15 20
M  V30 20 2 15 21
M  V30 21 2 19 22
M  V30 22 1 19 23
M  V30 23 2 20 24
M  V30 24 1 21 25
M  V30 25 1 22 26
M  V30 26 1 22 27
M  V30 27 2 23 28
M  V30 28 1 24 29
M  V30 29 2 27 30
M  V30 30 1 30 31
M  V30 31 1 7 10
M  V30 32 1 16 20
M  V30 33 2 25 29
M  V30 34 1 28 30
M  V30 END BOND
M  V30 END CTAB
M  END
>  <Molecule ChEMBL ID>
CHEMBL2338477

>  <Smiles>
O=S(=O)(Nc1cc(Cl)c(Oc2ccc3ncccc3c2)c(Cl)c1)c1ccc(Cl)cc1Cl

>  <IC50_nM>
20

>  <Assay Description>
Displacement of [3H]-rosiglitazone from GST-tagged PPARgammaLBD (unknown origin) after 1 hr by scintillation proximity assay

$$$$
CHEMBL365315
Actelion Java MolfileCreator 2.0

  0  0  0  0  0  0              0 V3000
M  V30 BEGIN CTAB
M  V30 COUNTS 41 45 0 0 0
M  V30 BEGIN ATOM
M  V30 1 Cl 6.9905 -6.3351 0.0 0
M  V30 2 C 7.2995 -5.3841 0.0 0
M  V30 3 C 8.2777 -5.1762 0.0 0
M  V30 4 C 6.6304 -4.6409 0.0 0
M  V30 5 C 8.5867 -4.2251 0.0 0
M  V30 6 C 6.9394 -3.6899 0.0 0
M  V30 7 O 9.5002 -3.8184 0.0 0
M  V30 8 C 7.9176 -3.482 0.0 0
M  V30 9 N 9.3957 -2.8238 0.0 0
M  V30 10 C 8.4176 -2.6159 0.0 0
M  V30 11 N 8.0108 -1.7024 0.0 0
M  V30 12 C 8.5108 -0.8364 0.0 0
M  V30 13 C 7.0327 -1.4945 0.0 0
M  V30 14 C 7.8417 -0.0932 0.0 0
M  V30 15 C 9.489 -0.6284 0.0 0
M  V30 16 C 6.9282 -0.5 0.0 0
M  V30 17 C 6.2895 -2.1636 0.0 0
M  V30 18 C 8.1507 0.8577 0.0 0
M  V30 19 C 9.798 0.3225 0.0 0
M  V30 20 O 6.0621 0.0 0.0 0
M  V30 21 C 9.1289 1.0657 0.0 0
M  V30 22 C 5.1961 -0.5 0.0 0
M  V30 23 O 9.4379 2.0167 0.0 0
M  V30 24 C 4.3301 0.0 0.0 0
M  V30 25 C 5.1961 -1.4999 0.0 0
M  V30 26 C 8.7687 2.7599 0.0 0
M  V30 27 C 3.4641 -0.5 0.0 0
M  V30 28 C 4.3301 -1.9999 0.0 0
M  V30 29 F 8.0256 2.0907 0.0 0
M  V30 30 F 8.0996 3.503 0.0 0
M  V30 31 F 9.5119 3.429 0.0 0
M  V30 32 O 2.598 0.0 0.0 0
M  V30 33 C 3.4641 -1.4999 0.0 0
M  V30 34 C 2.598 0.9999 0.0 0 CFG=2
M  V30 35 C 2.598 -1.9999 0.0 0
M  V30 36 C 1.732 1.4999 0.0 0
M  V30 37 C 3.4641 1.4999 0.0 0
M  V30 38 C 1.732 -1.4999 0.0 0
M  V30 39 O 0.866 0.9999 0.0 0
M  V30 40 O 1.732 2.4999 0.0 0
M  V30 41 C 0.866 -1.9999 0.0 0
M  V30 END ATOM
M  V30 BEGIN BOND
M  V30 1 1 1 2
M  V30 2 2 2 3
M  V30 3 1 2 4
M  V30 4 1 3 5
M  V30 5 2 4 6
M  V30 6 1 5 7
M  V30 7 2 5 8
M  V30 8 1 7 9
M  V30 9 1 8 10
M  V30 10 1 10 11
M  V30 11 1 11 12
M  V30 12 1 11 13
M  V30 13 2 12 14
M  V30 14 1 12 15
M  V30 15 2 13 16
M  V30 16 1 13 17
M  V30 17 1 14 18
M  V30 18 2 15 19
M  V30 19 1 16 20
M  V30 20 2 18 21
M  V30 21 1 20 22
M  V30 22 1 21 23
M  V30 23 2 22 24
M  V30 24 1 22 25
M  V30 25 1 23 26
M  V30 26 1 24 27
M  V30 27 2 25 28
M  V30 28 1 26 29
M  V30 29 1 26 30
M  V30 30 1 26 31
M  V30 31 1 27 32
M  V30 32 2 27 33
M  V30 33 1 32 34
M  V30 34 1 33 35
M  V30 35 1 34 36
M  V30 36 1 34 37 CFG=3
M  V30 37 1 35 38
M  V30 38 2 36 39
M  V30 39 1 36 40
M  V30 40 1 38 41
M  V30 41 1 6 8
M  V30 42 2 9 10
M  V30 43 1 14 16
M  V30 44 1 19 21
M  V30 45 1 28 33
M  V30 END BOND
M  V30 BEGIN COLLECTION
M  V30 MDLV30/STEABS ATOMS=(1 34)
M  V30 END COLLECTION
M  V30 END CTAB
M  END
>  <Molecule ChEMBL ID>
CHEMBL365315

>  <Smiles>
CCCc1ccc(Oc2c(C)n(-c3noc4cc(Cl)ccc34)c3ccc(OC(F)(F)F)cc23)cc1O[C@@H](C)C(=O)O

>  <IC50_nM>
20

>  <Assay Description>
Inhibition of human peroxisome proliferator activated receptor gamma binding

$$$$
CHEMBL241478
Actelion Java MolfileCreator 2.0

  0  0  0  0  0  0              0 V3000
M  V30 BEGIN CTAB
M  V30 COUNTS 34 36 0 0 0
M  V30 BEGIN ATOM
M  V30 1 F 8.2942 -1.1339 0.0 0
M  V30 2 C 7.7942 -2.0 0.0 0
M  V30 3 F 8.6602 -2.5 0.0 0
M  V30 4 F 7.2942 -2.866 0.0 0
M  V30 5 C 6.9282 -1.5 0.0 0
M  V30 6 C 6.9282 -0.5 0.0 0
M  V30 7 C 6.0621 -2.0 0.0 0
M  V30 8 C 6.0621 0.0 0.0 0
M  V30 9 C 5.1961 -1.5 0.0 0
M  V30 10 C 5.1961 -0.5 0.0 0
M  V30 11 C 6.0621 0.9999 0.0 0
M  V30 12 O 4.3301 0.0 0.0 0
M  V30 13 N 6.9282 1.4999 0.0 0
M  V30 14 C 5.1961 1.5 0.0 0
M  V30 15 C 3.4641 -0.5 0.0 0 CFG=1
M  V30 16 C 6.9282 2.4999 0.0 0
M  V30 17 C 5.1961 2.5 0.0 0
M  V30 18 C 2.598 0.0 0.0 0
M  V30 19 C 3.4641 -1.5 0.0 0
M  V30 20 C 6.0621 2.9999 0.0 0
M  V30 21 C 1.732 -0.5 0.0 0
M  V30 22 O 0.866 0.0 0.0 0
M  V30 23 C 0.0 -0.5 0.0 0
M  V30 24 C -0.866 0.0 0.0 0
M  V30 25 C 0.0 -1.4999 0.0 0
M  V30 26 C -1.732 -0.4999 0.0 0
M  V30 27 C -0.866 -1.9999 0.0 0
M  V30 28 C -1.732 -1.4999 0.0 0
M  V30 29 C -2.598 0.0 0.0 0
M  V30 30 C -2.598 -1.9999 0.0 0
M  V30 31 C -2.598 -2.9999 0.0 0
M  V30 32 C -3.4641 -3.4999 0.0 0
M  V30 33 O -4.3301 -2.9999 0.0 0
M  V30 34 O -3.4641 -4.4999 0.0 0
M  V30 END ATOM
M  V30 BEGIN BOND
M  V30 1 1 1 2
M  V30 2 1 2 3
M  V30 3 1 2 4
M  V30 4 1 2 5
M  V30 5 2 5 6
M  V30 6 1 5 7
M  V30 7 1 6 8
M  V30 8 2 7 9
M  V30 9 2 8 10
M  V30 10 1 8 11
M  V30 11 1 10 12
M  V30 12 2 11 13
M  V30 13 1 11 14
M  V30 14 1 12 15
M  V30 15 1 13 16
M  V30 16 2 14 17
M  V30 17 1 15 18
M  V30 18 1 15 19 CFG=3
M  V30 19 2 16 20
M  V30 20 1 18 21
M  V30 21 1 21 22
M  V30 22 1 22 23
M  V30 23 2 23 24
M  V30 24 1 23 25
M  V30 25 1 24 26
M  V30 26 2 25 27
M  V30 27 2 26 28
M  V30 28 1 26 29
M  V30 29 1 28 30
M  V30 30 1 30 31
M  V30 31 1 31 32
M  V30 32 2 32 33
M  V30 33 1 32 34
M  V30 34 1 9 10
M  V30 35 1 17 20
M  V30 36 1 27 28
M  V30 END BOND
M  V30 BEGIN COLLECTION
M  V30 MDLV30/STEABS ATOMS=(1 15)
M  V30 END COLLECTION
M  V30 END CTAB
M  END
>  <Molecule ChEMBL ID>
CHEMBL241478

>  <Smiles>
Cc1cc(OCC[C@@H](C)Oc2ccc(C(F)(F)F)cc2-c2ccccn2)ccc1CCC(=O)O

>  <IC50_nM>
20

>  <Assay Description>
Displacement of [3H]2-methyl-2-(4-{3-[porpyl-(5-pyridin-2yl-thiophene-2-sulfonyl)-amino]-propyl}-phenoxy)-propionic acid from human PPARgamma

$$$$
CHEMBL393940
Actelion Java MolfileCreator 2.0

  0  0  0  0  0  0              0 V3000
M  V30 BEGIN CTAB
M  V30 COUNTS 32 34 0 0 0
M  V30 BEGIN ATOM
M  V30 1 O 5.1961 -0.75 0.0 0
M  V30 2 C 3.8971 0.0 0.0 0
M  V30 3 N 2.598 -0.75 0.0 0
M  V30 4 C 3.8971 1.5 0.0 0
M  V30 5 C 1.299 0.0 0.0 0
M  V30 6 C 5.1961 2.25 0.0 0
M  V30 7 C 2.598 2.25 0.0 0
M  V30 8 C 0.0 -0.75 0.0 0
M  V30 9 C 5.1961 3.75 0.0 0
M  V30 10 C 6.4951 1.5 0.0 0
M  V30 11 C 2.598 3.75 0.0 0
M  V30 12 C -1.299 0.0 0.0 0
M  V30 13 C 0.0 -2.25 0.0 0
M  V30 14 C 3.8971 4.5 0.0 0
M  V30 15 C -2.598 -0.75 0.0 0
M  V30 16 C -1.299 -3.0 0.0 0
M  V30 17 O -3.8971 0.0 0.0 0
M  V30 18 C -2.598 -2.25 0.0 0
M  V30 19 C -5.1961 -0.75 0.0 0
M  V30 20 C -6.4951 0.0 0.0 0
M  V30 21 C -5.1961 -2.25 0.0 0
M  V30 22 C -7.7942 -0.75 0.0 0
M  V30 23 C -6.4951 -3.0 0.0 0
M  V30 24 C -7.7942 -2.25 0.0 0
M  V30 25 C -9.0932 0.0 0.0 0
M  V30 26 O -9.0932 -3.0 0.0 0
M  V30 27 C -9.0932 -4.5 0.0 0
M  V30 28 C -10.3923 -5.25 0.0 0
M  V30 29 C -8.3433 -5.799 0.0 0
M  V30 30 C -7.5933 -4.4999 0.0 0
M  V30 31 O -11.6913 -4.5 0.0 0
M  V30 32 O -10.3923 -6.75 0.0 0
M  V30 END ATOM
M  V30 BEGIN BOND
M  V30 1 2 1 2
M  V30 2 1 2 3
M  V30 3 1 2 4
M  V30 4 1 3 5
M  V30 5 2 4 6
M  V30 6 1 4 7
M  V30 7 1 5 8
M  V30 8 1 6 9
M  V30 9 1 6 10
M  V30 10 2 7 11
M  V30 11 2 8 12
M  V30 12 1 8 13
M  V30 13 2 9 14
M  V30 14 1 12 15
M  V30 15 2 13 16
M  V30 16 1 15 17
M  V30 17 2 15 18
M  V30 18 1 17 19
M  V30 19 2 19 20
M  V30 20 1 19 21
M  V30 21 1 20 22
M  V30 22 2 21 23
M  V30 23 2 22 24
M  V30 24 1 22 25
M  V30 25 1 24 26
M  V30 26 1 26 27
M  V30 27 1 27 28
M  V30 28 1 27 29
M  V30 29 1 27 30
M  V30 30 2 28 31
M  V30 31 1 28 32
M  V30 32 1 11 14
M  V30 33 1 16 18
M  V30 34 1 23 24
M  V30 END BOND
M  V30 END CTAB
M  END
>  <Molecule ChEMBL ID>
CHEMBL393940

>  <Smiles>
Cc1cc(Oc2cccc(CNC(=O)c3ccccc3C)c2)ccc1OC(C)(C)C(=O)O

>  <IC50_nM>
20

>  <Assay Description>
Displacement of [3H]2-methyl-2-(4-{3-{propyl-(5-pyridin-2-yl-thiophene-2-sulfonyl)-amino}-propyl}-phenoxy)-propionic acid from human PPARgamma

$$$$
CHEMBL3699384
Actelion Java MolfileCreator 2.0

  0  0  0  0  0  0              0 V3000
M  V30 BEGIN CTAB
M  V30 COUNTS 44 49 0 0 0
M  V30 BEGIN ATOM
M  V30 1 O 3.8424 1.554 0.0 0
M  V30 2 C 4.5855 0.8848 0.0 0
M  V30 3 O 5.5366 1.1939 0.0 0
M  V30 4 N 4.3776 -0.0932 0.0 0
M  V30 5 C 6.2797 0.5247 0.0 0
M  V30 6 C 3.4641 -0.5 0.0 0 CFG=1
M  V30 7 C 5.0467 -0.8364 0.0 0
M  V30 8 C 7.2308 0.8337 0.0 0
M  V30 9 C 2.598 0.0 0.0 0 CFG=1
M  V30 10 C 3.5686 -1.4945 0.0 0
M  V30 11 C 4.5467 -1.7024 0.0 0
M  V30 12 C 7.9739 0.1646 0.0 0
M  V30 13 C 7.4387 1.8119 0.0 0
M  V30 14 N 1.732 -0.5 0.0 0
M  V30 15 C 2.598 1.0 0.0 0
M  V30 16 C 8.925 0.4736 0.0 0
M  V30 17 C 8.3897 2.1209 0.0 0
M  V30 18 C 0.866 0.0 0.0 0
M  V30 19 C 9.1329 1.4518 0.0 0
M  V30 20 O 0.866 1.0 0.0 0
M  V30 21 C 0.0 -0.5 0.0 0
M  V30 22 C 0.0 -1.4999 0.0 0
M  V30 23 C -0.866 0.0 0.0 0
M  V30 24 C -0.866 -1.9999 0.0 0
M  V30 25 C -1.732 -0.4999 0.0 0
M  V30 26 C -1.732 -1.4999 0.0 0
M  V30 27 C -1.0739 -2.9781 0.0 0
M  V30 28 N -2.4751 -2.1691 0.0 0
M  V30 29 C -2.0684 -3.0826 0.0 0
M  V30 30 C -0.4048 -3.7212 0.0 0
M  V30 31 C -3.4533 -1.9612 0.0 0
M  V30 32 C -2.5684 -3.9487 0.0 0
M  V30 33 C -4.1224 -2.7043 0.0 0
M  V30 34 C -5.1006 -2.4964 0.0 0
M  V30 35 C -3.8134 -3.6554 0.0 0
M  V30 36 C -5.7697 -3.2395 0.0 0
M  V30 37 C -4.4825 -4.3985 0.0 0
M  V30 38 C -5.4607 -4.1906 0.0 0
M  V30 39 C -6.1298 -4.9337 0.0 0
M  V30 40 C -7.108 -4.7258 0.0 0
M  V30 41 C -5.8208 -5.8848 0.0 0
M  V30 42 C -7.7771 -5.469 0.0 0
M  V30 43 C -6.4899 -6.6279 0.0 0
M  V30 44 C -7.4681 -6.42 0.0 0
M  V30 END ATOM
M  V30 BEGIN BOND
M  V30 1 2 1 2
M  V30 2 1 2 3
M  V30 3 1 2 4
M  V30 4 1 3 5
M  V30 5 1 6 4 CFG=3
M  V30 6 1 4 7
M  V30 7 1 5 8
M  V30 8 1 6 9
M  V30 9 1 6 10
M  V30 10 1 7 11
M  V30 11 2 8 12
M  V30 12 1 8 13
M  V30 13 1 9 14
M  V30 14 1 9 15 CFG=1
M  V30 15 1 12 16
M  V30 16 2 13 17
M  V30 17 1 14 18
M  V30 18 2 16 19
M  V30 19 2 18 20
M  V30 20 1 18 21
M  V30 21 2 21 22
M  V30 22 1 21 23
M  V30 23 1 22 24
M  V30 24 2 23 25
M  V30 25 2 24 26
M  V30 26 1 24 27
M  V30 27 1 26 28
M  V30 28 2 27 29
M  V30 29 1 27 30
M  V30 30 1 28 31
M  V30 31 1 29 32
M  V30 32 1 31 33
M  V30 33 2 33 34
M  V30 34 1 33 35
M  V30 35 1 34 36
M  V30 36 2 35 37
M  V30 37 2 36 38
M  V30 38 1 38 39
M  V30 39 2 39 40
M  V30 40 1 39 41
M  V30 41 1 40 42
M  V30 42 2 41 43
M  V30 43 2 42 44
M  V30 44 1 10 11
M  V30 45 1 17 19
M  V30 46 1 25 26
M  V30 47 1 28 29
M  V30 48 1 37 38
M  V30 49 1 43 44
M  V30 END BOND
M  V30 BEGIN COLLECTION
M  V30 MDLV30/STEABS ATOMS=(2 6 9)
M  V30 END COLLECTION
M  V30 END CTAB
M  END
>  <Molecule ChEMBL ID>
CHEMBL3699384

>  <Smiles>
Cc1c(C)n(Cc2ccc(-c3ccccc3)cc2)c2ccc(C(=O)N[C@@H](C)[C@H]3CCCN3C(=O)OCc3ccccc3)cc12

>  <IC50_nM>
20

>  <Assay Description>
Lanthascreen Competitive Binding Assay: The assay was performed according to manufacturer protocol. A mixture of nM GST-PPARG-LBD, 5 nM Tb-GST-antibody, 5 nM Fluormone Pan-PPAR Green, and serial dilutions of the experimental compound, beginning at 10 ׬M downwards, was added to wells of black 384-well low-volume plates (Greiner) to a total volume of 18 ׬L. All dilutions were made in TR-FRET assay buffer C. DMSO at 2% final concentration was used as a no-ligand control. Experiment was performed in triplicate, and incubated for 2 hours in the dark prior to assay read in Perkin Elmer ViewLux ultra HTS microplate reader. FRET signal was measured by excitation at 340 nm and emission at 520 nm for fluorescein and 490 nm for terbium. Fold change over DMSO was calculated using GraphPad Prism Software (La Jolla, Calif.) by calculating 520 nm/490 nm ratio. Graphs were plotted as fold change of FRET signal for compound treatment over DMSO-only control.

$$$$
CHEMBL3695843
Actelion Java MolfileCreator 2.0

  0  0  0  0  0  0              0 V3000
M  V30 BEGIN CTAB
M  V30 COUNTS 40 44 0 0 0
M  V30 BEGIN ATOM
M  V30 1 O 6.9282 -0.5 0.0 0
M  V30 2 N 6.0621 0.0 0.0 0 CHG=1
M  V30 3 O 6.0621 0.9999 0.0 0 CHG=-1
M  V30 4 C 5.1961 -0.5 0.0 0
M  V30 5 C 4.3301 0.0 0.0 0
M  V30 6 C 5.1961 -1.4999 0.0 0
M  V30 7 C 3.4641 -0.5 0.0 0
M  V30 8 C 4.3301 -1.9999 0.0 0
M  V30 9 C 3.4641 -1.4999 0.0 0
M  V30 10 C 2.598 0.0 0.0 0
M  V30 11 N 1.732 -0.5 0.0 0
M  V30 12 C 0.866 0.0 0.0 0
M  V30 13 O 0.866 1.0 0.0 0
M  V30 14 C 0.0 -0.5 0.0 0
M  V30 15 C 0.0 -1.4999 0.0 0
M  V30 16 C -0.866 0.0 0.0 0
M  V30 17 C -0.866 -1.9999 0.0 0
M  V30 18 C -1.732 -0.4999 0.0 0
M  V30 19 C -1.732 -1.4999 0.0 0
M  V30 20 C -1.0739 -2.9781 0.0 0
M  V30 21 N -2.4751 -2.1691 0.0 0
M  V30 22 C -2.0684 -3.0826 0.0 0
M  V30 23 C -0.4048 -3.7212 0.0 0
M  V30 24 C -3.4533 -1.9612 0.0 0
M  V30 25 C -2.5684 -3.9487 0.0 0
M  V30 26 C -4.1224 -2.7043 0.0 0
M  V30 27 C -5.1006 -2.4964 0.0 0
M  V30 28 C -3.8134 -3.6554 0.0 0
M  V30 29 C -5.7697 -3.2395 0.0 0
M  V30 30 C -4.4825 -4.3985 0.0 0
M  V30 31 C -5.4607 -4.1906 0.0 0
M  V30 32 C -6.1298 -4.9337 0.0 0
M  V30 33 C -7.108 -4.7258 0.0 0
M  V30 34 C -5.8208 -5.8848 0.0 0
M  V30 35 C -7.417 -3.7748 0.0 0
M  V30 36 C -7.7771 -5.469 0.0 0
M  V30 37 C -6.4899 -6.6279 0.0 0
M  V30 38 O -6.7478 -3.0316 0.0 0
M  V30 39 O -8.3951 -3.5669 0.0 0
M  V30 40 C -7.4681 -6.42 0.0 0
M  V30 END ATOM
M  V30 BEGIN BOND
M  V30 1 2 1 2
M  V30 2 1 2 3
M  V30 3 1 2 4
M  V30 4 2 4 5
M  V30 5 1 4 6
M  V30 6 1 5 7
M  V30 7 2 6 8
M  V30 8 2 7 9
M  V30 9 1 7 10
M  V30 10 1 10 11
M  V30 11 1 11 12
M  V30 12 2 12 13
M  V30 13 1 12 14
M  V30 14 2 14 15
M  V30 15 1 14 16
M  V30 16 1 15 17
M  V30 17 2 16 18
M  V30 18 2 17 19
M  V30 19 1 17 20
M  V30 20 1 19 21
M  V30 21 2 20 22
M  V30 22 1 20 23
M  V30 23 1 21 24
M  V30 24 1 22 25
M  V30 25 1 24 26
M  V30 26 2 26 27
M  V30 27 1 26 28
M  V30 28 1 27 29
M  V30 29 2 28 30
M  V30 30 2 29 31
M  V30 31 1 31 32
M  V30 32 2 32 33
M  V30 33 1 32 34
M  V30 34 1 33 35
M  V30 35 1 33 36
M  V30 36 2 34 37
M  V30 37 2 35 38
M  V30 38 1 35 39
M  V30 39 2 36 40
M  V30 40 1 8 9
M  V30 41 1 18 19
M  V30 42 1 21 22
M  V30 43 1 30 31
M  V30 44 1 37 40
M  V30 END BOND
M  V30 END CTAB
M  END
>  <Molecule ChEMBL ID>
CHEMBL3695843

>  <Smiles>
Cc1c(C)n(Cc2ccc(-c3ccccc3C(=O)O)cc2)c2ccc(C(=O)NCc3cccc([N+](=O)[O-])c3)cc12

>  <IC50_nM>
20

>  <Assay Description>
Binding affinity to GST-tagged PPAR-gamma-LBD (unknown origin) after 2 hrs by Lantha screen assay using fluormone Pan-PPAR green probe

$$$$
CHEMBL3678160
Actelion Java MolfileCreator 2.0

  0  0  0  0  0  0              0 V3000
M  V30 BEGIN CTAB
M  V30 COUNTS 39 43 0 0 0
M  V30 BEGIN ATOM
M  V30 1 F 4.3301 0.9999 0.0 0
M  V30 2 C 4.3301 0.0 0.0 0
M  V30 3 C 3.4641 -0.5 0.0 0
M  V30 4 C 5.1961 -0.5 0.0 0
M  V30 5 O 2.598 0.0 0.0 0
M  V30 6 C 3.4641 -1.5 0.0 0
M  V30 7 C 5.1961 -1.5 0.0 0
M  V30 8 C 1.732 -0.5 0.0 0 CFG=2
M  V30 9 C 4.3301 -2.0 0.0 0
M  V30 10 C 0.866 0.0 0.0 0
M  V30 11 C 1.732 -1.5 0.0 0
M  V30 12 C 4.3301 -3.0 0.0 0
M  V30 13 O 0.866 1.0 0.0 0
M  V30 14 O 0.0 -0.5 0.0 0
M  V30 15 N 5.1961 -3.5 0.0 0
M  V30 16 C 5.3006 -4.4945 0.0 0
M  V30 17 C 6.1096 -3.0932 0.0 0
M  V30 18 C 6.2788 -4.7024 0.0 0
M  V30 19 C 4.6315 -5.2376 0.0 0
M  V30 20 C 6.7788 -3.8364 0.0 0
M  V30 21 C 6.3176 -2.1151 0.0 0
M  V30 22 C 6.5878 -5.6534 0.0 0
M  V30 23 C 4.9405 -6.1887 0.0 0
M  V30 24 C 7.7733 -3.7318 0.0 0
M  V30 25 C 5.9187 -6.3966 0.0 0
M  V30 26 C 6.2277 -7.3476 0.0 0
M  V30 27 O 5.5586 -8.0908 0.0 0
M  V30 28 N 7.2058 -7.5556 0.0 0
M  V30 29 C 7.5148 -8.5066 0.0 0 CFG=2
M  V30 30 C 6.8457 -9.2498 0.0 0
M  V30 31 C 8.493 -8.7145 0.0 0
M  V30 32 C 5.8676 -9.0418 0.0 0
M  V30 33 C 7.1547 -10.2008 0.0 0
M  V30 34 C 5.1984 -9.785 0.0 0
M  V30 35 C 6.4856 -10.944 0.0 0
M  V30 36 C 5.5075 -10.736 0.0 0
M  V30 37 C 4.2203 -9.5771 0.0 0
M  V30 38 C 3.4771 -8.9079 0.0 0
M  V30 39 C 3.2692 -9.8861 0.0 0
M  V30 END ATOM
M  V30 BEGIN BOND
M  V30 1 1 1 2
M  V30 2 2 2 3
M  V30 3 1 2 4
M  V30 4 1 3 5
M  V30 5 1 3 6
M  V30 6 2 4 7
M  V30 7 1 5 8
M  V30 8 2 6 9
M  V30 9 1 8 10
M  V30 10 1 8 11 CFG=1
M  V30 11 1 9 12
M  V30 12 2 10 13
M  V30 13 1 10 14
M  V30 14 1 12 15
M  V30 15 1 15 16
M  V30 16 1 15 17
M  V30 17 2 16 18
M  V30 18 1 16 19
M  V30 19 2 17 20
M  V30 20 1 17 21
M  V30 21 1 18 22
M  V30 22 2 19 23
M  V30 23 1 20 24
M  V30 24 2 22 25
M  V30 25 1 25 26
M  V30 26 2 26 27
M  V30 27 1 26 28
M  V30 28 1 28 29
M  V30 29 1 29 30
M  V30 30 1 29 31 CFG=1
M  V30 31 2 30 32
M  V30 32 1 30 33
M  V30 33 1 32 34
M  V30 34 2 33 35
M  V30 35 2 34 36
M  V30 36 1 34 37
M  V30 37 1 37 38
M  V30 38 1 37 39
M  V30 39 1 7 9
M  V30 40 1 18 20
M  V30 41 1 23 25
M  V30 42 1 35 36
M  V30 43 1 38 39
M  V30 END BOND
M  V30 BEGIN COLLECTION
M  V30 MDLV30/STEABS ATOMS=(2 8 29)
M  V30 END COLLECTION
M  V30 END CTAB
M  END
>  <Molecule ChEMBL ID>
CHEMBL3678160

>  <Smiles>
Cc1c(C)n(Cc2ccc(F)c(O[C@@H](C)C(=O)O)c2)c2ccc(C(=O)N[C@@H](C)c3cccc(C4CC4)c3)cc12

>  <IC50_nM>
20

>  <Assay Description>
Lanthascreen Competitive Binding Assay: The assay was performed according to manufacturer protocol. A mixture of 5 nM GST-PPARG-LBD, 5 nM Tb-GST-antibody, 5 nM Fluormone Pan- PPAR Green, and serial dilutions of the experimental compound, beginning at 10 ׬� downwards, was added to wells of black 384-well low- volume plates (Greiner) to a total volume of 18 xL. All dilutions were made in TR-FRET assay buffer C. DMSO at 2% final concentration was used as a no-ligand control. Experiment was performed in triplicate, and incubated for 2 hours in the dark prior to assay read in Perkin Elmer ViewLux ultra HTS microplate reader. FRET signal was measured by excitation at 340 nm and emission at 520 nm for fluorescein and 490 nm for terbium.

$$$$
CHEMBL3695911
Actelion Java MolfileCreator 2.0

  0  0  0  0  0  0              0 V3000
M  V30 BEGIN CTAB
M  V30 COUNTS 39 43 0 0 0
M  V30 BEGIN ATOM
M  V30 1 O 4.6457 5.2326 0.0 0
M  V30 2 C 5.3148 4.4895 0.0 0
M  V30 3 O 5.0058 3.5384 0.0 0
M  V30 4 C 6.293 4.6974 0.0 0
M  V30 5 C 6.9621 3.9542 0.0 0
M  V30 6 C 6.602 5.6484 0.0 0
M  V30 7 C 7.9402 4.1621 0.0 0
M  V30 8 C 7.5801 5.8563 0.0 0
M  V30 9 C 8.6094 3.419 0.0 0
M  V30 10 C 8.2493 5.1132 0.0 0
M  V30 11 C 8.3003 2.4679 0.0 0
M  V30 12 C 9.5875 3.6269 0.0 0
M  V30 13 C 8.9695 1.7248 0.0 0
M  V30 14 C 7.3222 2.26 0.0 0
M  V30 15 C 10.2566 2.8838 0.0 0
M  V30 16 C 9.9476 1.9327 0.0 0
M  V30 17 N 7.0132 1.309 0.0 0
M  V30 18 C 6.0621 0.9999 0.0 0
M  V30 19 C 7.601 0.5 0.0 0
M  V30 20 C 6.0621 0.0 0.0 0
M  V30 21 C 5.1961 1.4999 0.0 0
M  V30 22 C 7.0132 -0.309 0.0 0
M  V30 23 C 8.601 0.5 0.0 0
M  V30 24 C 5.1961 -0.5 0.0 0
M  V30 25 C 4.3301 0.9999 0.0 0
M  V30 26 C 7.3222 -1.26 0.0 0
M  V30 27 C 4.3301 0.0 0.0 0
M  V30 28 C 3.4641 -0.5 0.0 0
M  V30 29 O 3.4641 -1.5 0.0 0
M  V30 30 N 2.598 0.0 0.0 0
M  V30 31 C 1.732 -0.5 0.0 0 CFG=1
M  V30 32 C 1.732 -1.5 0.0 0
M  V30 33 C 0.866 0.0 0.0 0
M  V30 34 C 0.866 -1.9999 0.0 0
M  V30 35 C 2.598 -2.0 0.0 0
M  V30 36 C 0.0 -0.5 0.0 0
M  V30 37 C 0.866 -2.9999 0.0 0
M  V30 38 C 2.598 -3.0 0.0 0
M  V30 39 C 1.732 -3.5 0.0 0
M  V30 END ATOM
M  V30 BEGIN BOND
M  V30 1 2 1 2
M  V30 2 1 2 3
M  V30 3 1 2 4
M  V30 4 2 4 5
M  V30 5 1 4 6
M  V30 6 1 5 7
M  V30 7 2 6 8
M  V30 8 1 7 9
M  V30 9 2 7 10
M  V30 10 2 9 11
M  V30 11 1 9 12
M  V30 12 1 11 13
M  V30 13 1 11 14
M  V30 14 2 12 15
M  V30 15 2 13 16
M  V30 16 1 14 17
M  V30 17 1 17 18
M  V30 18 1 17 19
M  V30 19 2 18 20
M  V30 20 1 18 21
M  V30 21 2 19 22
M  V30 22 1 19 23
M  V30 23 1 20 24
M  V30 24 2 21 25
M  V30 25 1 22 26
M  V30 26 2 24 27
M  V30 27 1 27 28
M  V30 28 2 28 29
M  V30 29 1 28 30
M  V30 30 1 31 30 CFG=1
M  V30 31 1 31 32
M  V30 32 1 31 33
M  V30 33 2 32 34
M  V30 34 1 32 35
M  V30 35 1 33 36
M  V30 36 1 34 37
M  V30 37 2 35 38
M  V30 38 2 37 39
M  V30 39 1 8 10
M  V30 40 1 15 16
M  V30 41 1 20 22
M  V30 42 1 25 27
M  V30 43 1 38 39
M  V30 END BOND
M  V30 BEGIN COLLECTION
M  V30 MDLV30/STEABS ATOMS=(1 31)
M  V30 END COLLECTION
M  V30 END CTAB
M  END
>  <Molecule ChEMBL ID>
CHEMBL3695911

>  <Smiles>
CC[C@@H](NC(=O)c1ccc2c(c1)c(C)c(C)n2Cc1ccccc1-c1cccc(C(=O)O)c1)c1ccccc1

>  <IC50_nM>
20

>  <Assay Description>
Lanthascreen Competitive Binding Assay: The assay was performed according to manufacturer protocol. A mixture of nM GST-PPARG-LBD, 5 nM Tb-GST-antibody, 5 nM Fluormone Pan-PPAR Green, and serial dilutions of the experimental compound, beginning at 10 ׬M downwards, was added to wells of black 384-well low-volume plates (Greiner) to a total volume of 18 ׬L. All dilutions were made in TR-FRET assay buffer C. DMSO at 2% final concentration was used as a no-ligand control. Experiment was performed in triplicate, and incubated for 2 hours in the dark prior to assay read in Perkin Elmer ViewLux ultra HTS microplate reader. FRET signal was measured by excitation at 340 nm and emission at 520 nm for fluorescein and 490 nm for terbium. Fold change over DMSO was calculated using GraphPad Prism Software (La Jolla, Calif.) by calculating 520 nm/490 nm ratio. Graphs were plotted as fold change of FRET signal for compound treatment over DMSO-only control.

$$$$
CHEMBL3695870
Actelion Java MolfileCreator 2.0

  0  0  0  0  0  0              0 V3000
M  V30 BEGIN CTAB
M  V30 COUNTS 39 43 0 0 0
M  V30 BEGIN ATOM
M  V30 1 O 5.1961 -0.7499 0.0 0
M  V30 2 C 3.8971 0.0 0.0 0
M  V30 3 N 2.598 -0.7499 0.0 0
M  V30 4 C 3.8971 1.5 0.0 0
M  V30 5 C 2.598 -2.2499 0.0 0 CFG=2
M  V30 6 C 2.598 2.2499 0.0 0
M  V30 7 C 5.1961 2.25 0.0 0
M  V30 8 C 3.8971 -3.0 0.0 0
M  V30 9 C 1.299 -2.9999 0.0 0
M  V30 10 C 2.598 3.75 0.0 0
M  V30 11 C 5.1961 3.75 0.0 0
M  V30 12 C 5.1961 -2.25 0.0 0
M  V30 13 C 3.8971 -4.4999 0.0 0
M  V30 14 C 3.8971 4.5 0.0 0
M  V30 15 C 1.4833 4.7536 0.0 0
M  V30 16 C 6.4951 -3.0 0.0 0
M  V30 17 C 5.1961 -5.25 0.0 0
M  V30 18 N 3.5852 5.9672 0.0 0
M  V30 19 C 2.0934 6.124 0.0 0
M  V30 20 C 0.0161 4.4418 0.0 0
M  V30 21 O 7.7942 -2.25 0.0 0
M  V30 22 C 6.4951 -4.5 0.0 0
M  V30 23 O 5.1961 -6.75 0.0 0
M  V30 24 C 4.5889 7.0819 0.0 0
M  V30 25 C 1.3434 7.423 0.0 0
M  V30 26 C 7.7942 -0.75 0.0 0
M  V30 27 C 3.8971 -7.5 0.0 0
M  V30 28 C 4.1254 8.5085 0.0 0
M  V30 29 C 5.1291 9.6232 0.0 0
M  V30 30 C 2.6581 8.8203 0.0 0
M  V30 31 C 4.6655 11.0498 0.0 0
M  V30 32 C 2.1946 10.2469 0.0 0
M  V30 33 C 3.1983 11.3616 0.0 0
M  V30 34 C 2.7348 12.7882 0.0 0
M  V30 35 C 3.7385 13.9029 0.0 0
M  V30 36 C 1.2676 13.1001 0.0 0
M  V30 37 C 3.275 15.3295 0.0 0
M  V30 38 C 0.804 14.5267 0.0 0
M  V30 39 C 1.8077 15.6414 0.0 0
M  V30 END ATOM
M  V30 BEGIN BOND
M  V30 1 2 1 2
M  V30 2 1 2 3
M  V30 3 1 2 4
M  V30 4 1 3 5
M  V30 5 2 4 6
M  V30 6 1 4 7
M  V30 7 1 5 8
M  V30 8 1 5 9 CFG=3
M  V30 9 1 6 10
M  V30 10 2 7 11
M  V30 11 2 8 12
M  V30 12 1 8 13
M  V30 13 2 10 14
M  V30 14 1 10 15
M  V30 15 1 12 16
M  V30 16 2 13 17
M  V30 17 1 14 18
M  V30 18 2 15 19
M  V30 19 1 15 20
M  V30 20 1 16 21
M  V30 21 2 16 22
M  V30 22 1 17 23
M  V30 23 1 18 24
M  V30 24 1 19 25
M  V30 25 1 21 26
M  V30 26 1 23 27
M  V30 27 1 24 28
M  V30 28 2 28 29
M  V30 29 1 28 30
M  V30 30 1 29 31
M  V30 31 2 30 32
M  V30 32 2 31 33
M  V30 33 1 33 34
M  V30 34 2 34 35
M  V30 35 1 34 36
M  V30 36 1 35 37
M  V30 37 2 36 38
M  V30 38 2 37 39
M  V30 39 1 11 14
M  V30 40 1 17 22
M  V30 41 1 18 19
M  V30 42 1 32 33
M  V30 43 1 38 39
M  V30 END BOND
M  V30 BEGIN COLLECTION
M  V30 MDLV30/STEABS ATOMS=(1 5)
M  V30 END COLLECTION
M  V30 END CTAB
M  END
>  <Molecule ChEMBL ID>
CHEMBL3695870

>  <Smiles>
COc1cc(OC)cc([C@H](C)NC(=O)c2ccc3c(c2)c(C)c(C)n3Cc2ccc(-c3ccccc3)cc2)c1

>  <IC50_nM>
20

>  <Assay Description>
Lanthascreen Competitive Binding Assay: The assay was performed according to manufacturer protocol. A mixture of nM GST-PPARG-LBD, 5 nM Tb-GST-antibody, 5 nM Fluormone Pan-PPAR Green, and serial dilutions of the experimental compound, beginning at 10 ׬M downwards, was added to wells of black 384-well low-volume plates (Greiner) to a total volume of 18 ׬L. All dilutions were made in TR-FRET assay buffer C. DMSO at 2% final concentration was used as a no-ligand control. Experiment was performed in triplicate, and incubated for 2 hours in the dark prior to assay read in Perkin Elmer ViewLux ultra HTS microplate reader. FRET signal was measured by excitation at 340 nm and emission at 520 nm for fluorescein and 490 nm for terbium. Fold change over DMSO was calculated using GraphPad Prism Software (La Jolla, Calif.) by calculating 520 nm/490 nm ratio. Graphs were plotted as fold change of FRET signal for compound treatment over DMSO-only control.

$$$$
CHEMBL3695843
Actelion Java MolfileCreator 2.0

  0  0  0  0  0  0              0 V3000
M  V30 BEGIN CTAB
M  V30 COUNTS 40 44 0 0 0
M  V30 BEGIN ATOM
M  V30 1 O 6.9282 -0.5 0.0 0
M  V30 2 N 6.0621 0.0 0.0 0 CHG=1
M  V30 3 O 6.0621 0.9999 0.0 0 CHG=-1
M  V30 4 C 5.1961 -0.5 0.0 0
M  V30 5 C 4.3301 0.0 0.0 0
M  V30 6 C 5.1961 -1.4999 0.0 0
M  V30 7 C 3.4641 -0.5 0.0 0
M  V30 8 C 4.3301 -1.9999 0.0 0
M  V30 9 C 3.4641 -1.4999 0.0 0
M  V30 10 C 2.598 0.0 0.0 0
M  V30 11 N 1.732 -0.5 0.0 0
M  V30 12 C 0.866 0.0 0.0 0
M  V30 13 O 0.866 1.0 0.0 0
M  V30 14 C 0.0 -0.5 0.0 0
M  V30 15 C 0.0 -1.4999 0.0 0
M  V30 16 C -0.866 0.0 0.0 0
M  V30 17 C -0.866 -1.9999 0.0 0
M  V30 18 C -1.732 -0.4999 0.0 0
M  V30 19 C -1.732 -1.4999 0.0 0
M  V30 20 C -1.0739 -2.9781 0.0 0
M  V30 21 N -2.4751 -2.1691 0.0 0
M  V30 22 C -2.0684 -3.0826 0.0 0
M  V30 23 C -0.4048 -3.7212 0.0 0
M  V30 24 C -3.4533 -1.9612 0.0 0
M  V30 25 C -2.5684 -3.9487 0.0 0
M  V30 26 C -4.1224 -2.7043 0.0 0
M  V30 27 C -5.1006 -2.4964 0.0 0
M  V30 28 C -3.8134 -3.6554 0.0 0
M  V30 29 C -5.7697 -3.2395 0.0 0
M  V30 30 C -4.4825 -4.3985 0.0 0
M  V30 31 C -5.4607 -4.1906 0.0 0
M  V30 32 C -6.1298 -4.9337 0.0 0
M  V30 33 C -7.108 -4.7258 0.0 0
M  V30 34 C -5.8208 -5.8848 0.0 0
M  V30 35 C -7.417 -3.7748 0.0 0
M  V30 36 C -7.7771 -5.469 0.0 0
M  V30 37 C -6.4899 -6.6279 0.0 0
M  V30 38 O -6.7478 -3.0316 0.0 0
M  V30 39 O -8.3951 -3.5669 0.0 0
M  V30 40 C -7.4681 -6.42 0.0 0
M  V30 END ATOM
M  V30 BEGIN BOND
M  V30 1 2 1 2
M  V30 2 1 2 3
M  V30 3 1 2 4
M  V30 4 2 4 5
M  V30 5 1 4 6
M  V30 6 1 5 7
M  V30 7 2 6 8
M  V30 8 2 7 9
M  V30 9 1 7 10
M  V30 10 1 10 11
M  V30 11 1 11 12
M  V30 12 2 12 13
M  V30 13 1 12 14
M  V30 14 2 14 15
M  V30 15 1 14 16
M  V30 16 1 15 17
M  V30 17 2 16 18
M  V30 18 2 17 19
M  V30 19 1 17 20
M  V30 20 1 19 21
M  V30 21 2 20 22
M  V30 22 1 20 23
M  V30 23 1 21 24
M  V30 24 1 22 25
M  V30 25 1 24 26
M  V30 26 2 26 27
M  V30 27 1 26 28
M  V30 28 1 27 29
M  V30 29 2 28 30
M  V30 30 2 29 31
M  V30 31 1 31 32
M  V30 32 2 32 33
M  V30 33 1 32 34
M  V30 34 1 33 35
M  V30 35 1 33 36
M  V30 36 2 34 37
M  V30 37 2 35 38
M  V30 38 1 35 39
M  V30 39 2 36 40
M  V30 40 1 8 9
M  V30 41 1 18 19
M  V30 42 1 21 22
M  V30 43 1 30 31
M  V30 44 1 37 40
M  V30 END BOND
M  V30 END CTAB
M  END
>  <Molecule ChEMBL ID>
CHEMBL3695843

>  <Smiles>
Cc1c(C)n(Cc2ccc(-c3ccccc3C(=O)O)cc2)c2ccc(C(=O)NCc3cccc([N+](=O)[O-])c3)cc12

>  <IC50_nM>
20

>  <Assay Description>
Lanthascreen Competitive Binding Assay: The assay was performed according to manufacturer protocol. A mixture of nM GST-PPARG-LBD, 5 nM Tb-GST-antibody, 5 nM Fluormone Pan-PPAR Green, and serial dilutions of the experimental compound, beginning at 10 ׬M downwards, was added to wells of black 384-well low-volume plates (Greiner) to a total volume of 18 ׬L. All dilutions were made in TR-FRET assay buffer C. DMSO at 2% final concentration was used as a no-ligand control. Experiment was performed in triplicate, and incubated for 2 hours in the dark prior to assay read in Perkin Elmer ViewLux ultra HTS microplate reader. FRET signal was measured by excitation at 340 nm and emission at 520 nm for fluorescein and 490 nm for terbium. Fold change over DMSO was calculated using GraphPad Prism Software (La Jolla, Calif.) by calculating 520 nm/490 nm ratio. Graphs were plotted as fold change of FRET signal for compound treatment over DMSO-only control.

$$$$
CHEMBL241478
Actelion Java MolfileCreator 2.0

  0  0  0  0  0  0              0 V3000
M  V30 BEGIN CTAB
M  V30 COUNTS 34 36 0 0 0
M  V30 BEGIN ATOM
M  V30 1 F 8.2942 -1.1339 0.0 0
M  V30 2 C 7.7942 -2.0 0.0 0
M  V30 3 F 8.6602 -2.5 0.0 0
M  V30 4 F 7.2942 -2.866 0.0 0
M  V30 5 C 6.9282 -1.5 0.0 0
M  V30 6 C 6.9282 -0.5 0.0 0
M  V30 7 C 6.0621 -2.0 0.0 0
M  V30 8 C 6.0621 0.0 0.0 0
M  V30 9 C 5.1961 -1.5 0.0 0
M  V30 10 C 5.1961 -0.5 0.0 0
M  V30 11 C 6.0621 0.9999 0.0 0
M  V30 12 O 4.3301 0.0 0.0 0
M  V30 13 N 6.9282 1.4999 0.0 0
M  V30 14 C 5.1961 1.5 0.0 0
M  V30 15 C 3.4641 -0.5 0.0 0 CFG=1
M  V30 16 C 6.9282 2.4999 0.0 0
M  V30 17 C 5.1961 2.5 0.0 0
M  V30 18 C 2.598 0.0 0.0 0
M  V30 19 C 3.4641 -1.5 0.0 0
M  V30 20 C 6.0621 2.9999 0.0 0
M  V30 21 C 1.732 -0.5 0.0 0
M  V30 22 O 0.866 0.0 0.0 0
M  V30 23 C 0.0 -0.5 0.0 0
M  V30 24 C -0.866 0.0 0.0 0
M  V30 25 C 0.0 -1.4999 0.0 0
M  V30 26 C -1.732 -0.4999 0.0 0
M  V30 27 C -0.866 -1.9999 0.0 0
M  V30 28 C -1.732 -1.4999 0.0 0
M  V30 29 C -2.598 0.0 0.0 0
M  V30 30 C -2.598 -1.9999 0.0 0
M  V30 31 C -2.598 -2.9999 0.0 0
M  V30 32 C -3.4641 -3.4999 0.0 0
M  V30 33 O -4.3301 -2.9999 0.0 0
M  V30 34 O -3.4641 -4.4999 0.0 0
M  V30 END ATOM
M  V30 BEGIN BOND
M  V30 1 1 1 2
M  V30 2 1 2 3
M  V30 3 1 2 4
M  V30 4 1 2 5
M  V30 5 2 5 6
M  V30 6 1 5 7
M  V30 7 1 6 8
M  V30 8 2 7 9
M  V30 9 2 8 10
M  V30 10 1 8 11
M  V30 11 1 10 12
M  V30 12 2 11 13
M  V30 13 1 11 14
M  V30 14 1 12 15
M  V30 15 1 13 16
M  V30 16 2 14 17
M  V30 17 1 15 18
M  V30 18 1 15 19 CFG=3
M  V30 19 2 16 20
M  V30 20 1 18 21
M  V30 21 1 21 22
M  V30 22 1 22 23
M  V30 23 2 23 24
M  V30 24 1 23 25
M  V30 25 1 24 26
M  V30 26 2 25 27
M  V30 27 2 26 28
M  V30 28 1 26 29
M  V30 29 1 28 30
M  V30 30 1 30 31
M  V30 31 1 31 32
M  V30 32 2 32 33
M  V30 33 1 32 34
M  V30 34 1 9 10
M  V30 35 1 17 20
M  V30 36 1 27 28
M  V30 END BOND
M  V30 BEGIN COLLECTION
M  V30 MDLV30/STEABS ATOMS=(1 15)
M  V30 END COLLECTION
M  V30 END CTAB
M  END
>  <Molecule ChEMBL ID>
CHEMBL241478

>  <Smiles>
Cc1cc(OCC[C@@H](C)Oc2ccc(C(F)(F)F)cc2-c2ccccn2)ccc1CCC(=O)O

>  <IC50_nM>
20

>  <Assay Description>
Agonist activity at PPARgamma

$$$$
CHEMBL182884
Actelion Java MolfileCreator 2.0

  0  0  0  0  0  0              0 V3000
M  V30 BEGIN CTAB
M  V30 COUNTS 30 32 0 0 0
M  V30 BEGIN ATOM
M  V30 1 O 8.6602 -4.5 0.0 0
M  V30 2 C 8.6602 -3.5 0.0 0
M  V30 3 O 9.5262 -3.0 0.0 0
M  V30 4 C 7.7942 -3.0 0.0 0 CFG=1
M  V30 5 O 6.9282 -3.5 0.0 0
M  V30 6 C 7.7942 -2.0 0.0 0
M  V30 7 C 6.9282 -4.5 0.0 0
M  V30 8 C 6.9282 -1.5 0.0 0
M  V30 9 C 6.9282 -0.5 0.0 0
M  V30 10 C 6.0621 -2.0 0.0 0
M  V30 11 C 6.0621 0.0 0.0 0
M  V30 12 C 5.1961 -1.5 0.0 0
M  V30 13 C 5.1961 -0.5 0.0 0
M  V30 14 O 4.3301 0.0 0.0 0
M  V30 15 C 3.4641 -0.5 0.0 0
M  V30 16 C 2.598 0.0 0.0 0
M  V30 17 C 1.732 -0.5 0.0 0
M  V30 18 O 0.866 0.0 0.0 0
M  V30 19 C 0.0 -0.5 0.0 0
M  V30 20 C -0.866 0.0 0.0 0
M  V30 21 C 0.0 -1.4999 0.0 0
M  V30 22 C -1.732 -0.4999 0.0 0
M  V30 23 C -0.866 -1.9999 0.0 0
M  V30 24 C -1.732 -1.4999 0.0 0
M  V30 25 C -2.598 -1.9999 0.0 0
M  V30 26 C -3.4641 -1.4999 0.0 0
M  V30 27 C -2.598 -2.9999 0.0 0
M  V30 28 C -4.3301 -1.9999 0.0 0
M  V30 29 C -3.4641 -3.4999 0.0 0
M  V30 30 C -4.3301 -2.9999 0.0 0
M  V30 END ATOM
M  V30 BEGIN BOND
M  V30 1 2 1 2
M  V30 2 1 2 3
M  V30 3 1 2 4
M  V30 4 1 4 5 CFG=1
M  V30 5 1 4 6
M  V30 6 1 5 7
M  V30 7 1 6 8
M  V30 8 2 8 9
M  V30 9 1 8 10
M  V30 10 1 9 11
M  V30 11 2 10 12
M  V30 12 2 11 13
M  V30 13 1 13 14
M  V30 14 1 14 15
M  V30 15 1 15 16
M  V30 16 1 16 17
M  V30 17 1 17 18
M  V30 18 1 18 19
M  V30 19 2 19 20
M  V30 20 1 19 21
M  V30 21 1 20 22
M  V30 22 2 21 23
M  V30 23 2 22 24
M  V30 24 1 24 25
M  V30 25 2 25 26
M  V30 26 1 25 27
M  V30 27 1 26 28
M  V30 28 2 27 29
M  V30 29 2 28 30
M  V30 30 1 12 13
M  V30 31 1 23 24
M  V30 32 1 29 30
M  V30 END BOND
M  V30 BEGIN COLLECTION
M  V30 MDLV30/STEABS ATOMS=(1 4)
M  V30 END COLLECTION
M  V30 END CTAB
M  END
>  <Molecule ChEMBL ID>
CHEMBL182884

>  <Smiles>
CO[C@@H](Cc1ccc(OCCCOc2ccc(-c3ccccc3)cc2)cc1)C(=O)O

>  <IC50_nM>
20.99

>  <Assay Description>
Agonist activity at PPARgamma

$$$$
CHEMBL3695898
Actelion Java MolfileCreator 2.0

  0  0  0  0  0  0              0 V3000
M  V30 BEGIN CTAB
M  V30 COUNTS 38 42 0 0 0
M  V30 BEGIN ATOM
M  V30 1 F 9.0932 0.0 0.0 0
M  V30 2 C 7.7942 -0.75 0.0 0
M  V30 3 C 6.4951 0.0 0.0 0
M  V30 4 C 7.7942 -2.25 0.0 0
M  V30 5 O 6.4951 1.5 0.0 0
M  V30 6 C 5.1961 -0.75 0.0 0
M  V30 7 C 6.4951 -3.0 0.0 0
M  V30 8 C 5.1961 2.25 0.0 0
M  V30 9 C 5.1961 -2.25 0.0 0
M  V30 10 C 3.8971 0.0 0.0 0 CFG=1
M  V30 11 N 2.598 -0.75 0.0 0
M  V30 12 C 3.8971 1.5 0.0 0
M  V30 13 C 1.299 0.0 0.0 0
M  V30 14 O 1.299 1.5 0.0 0
M  V30 15 C 0.0 -0.75 0.0 0
M  V30 16 C 0.0 -2.25 0.0 0
M  V30 17 C -1.299 0.0 0.0 0
M  V30 18 C -1.299 -2.9999 0.0 0
M  V30 19 C -2.598 -0.7499 0.0 0
M  V30 20 C -2.598 -2.2499 0.0 0
M  V30 21 C -1.6109 -4.4672 0.0 0
M  V30 22 N -3.7127 -3.2536 0.0 0
M  V30 23 C -3.1026 -4.624 0.0 0
M  V30 24 C -0.6072 -5.5819 0.0 0
M  V30 25 C -5.18 -2.9418 0.0 0
M  V30 26 C -3.8526 -5.923 0.0 0
M  V30 27 C -6.1837 -4.0565 0.0 0
M  V30 28 C -7.6509 -3.7446 0.0 0
M  V30 29 C -5.7201 -5.4831 0.0 0
M  V30 30 C -8.6546 -4.8593 0.0 0
M  V30 31 C -6.7238 -6.5978 0.0 0
M  V30 32 C -8.1911 -6.2859 0.0 0
M  V30 33 C -9.1947 -7.4006 0.0 0
M  V30 34 C -10.662 -7.0888 0.0 0
M  V30 35 C -8.7312 -8.8272 0.0 0
M  V30 36 C -11.6657 -8.2035 0.0 0
M  V30 37 C -9.7349 -9.9419 0.0 0
M  V30 38 C -11.2021 -9.6301 0.0 0
M  V30 END ATOM
M  V30 BEGIN BOND
M  V30 1 1 1 2
M  V30 2 2 2 3
M  V30 3 1 2 4
M  V30 4 1 3 5
M  V30 5 1 3 6
M  V30 6 2 4 7
M  V30 7 1 5 8
M  V30 8 2 6 9
M  V30 9 1 6 10
M  V30 10 1 10 11
M  V30 11 1 10 12 CFG=1
M  V30 12 1 11 13
M  V30 13 2 13 14
M  V30 14 1 13 15
M  V30 15 2 15 16
M  V30 16 1 15 17
M  V30 17 1 16 18
M  V30 18 2 17 19
M  V30 19 2 18 20
M  V30 20 1 18 21
M  V30 21 1 20 22
M  V30 22 2 21 23
M  V30 23 1 21 24
M  V30 24 1 22 25
M  V30 25 1 23 26
M  V30 26 1 25 27
M  V30 27 2 27 28
M  V30 28 1 27 29
M  V30 29 1 28 30
M  V30 30 2 29 31
M  V30 31 2 30 32
M  V30 32 1 32 33
M  V30 33 2 33 34
M  V30 34 1 33 35
M  V30 35 1 34 36
M  V30 36 2 35 37
M  V30 37 2 36 38
M  V30 38 1 7 9
M  V30 39 1 19 20
M  V30 40 1 22 23
M  V30 41 1 31 32
M  V30 42 1 37 38
M  V30 END BOND
M  V30 BEGIN COLLECTION
M  V30 MDLV30/STEABS ATOMS=(1 10)
M  V30 END COLLECTION
M  V30 END CTAB
M  END
>  <Molecule ChEMBL ID>
CHEMBL3695898

>  <Smiles>
COc1c(F)cccc1[C@H](C)NC(=O)c1ccc2c(c1)c(C)c(C)n2Cc1ccc(-c2ccccc2)cc1

>  <IC50_nM>
21

>  <Assay Description>
Lanthascreen Competitive Binding Assay: The assay was performed according to manufacturer protocol. A mixture of nM GST-PPARG-LBD, 5 nM Tb-GST-antibody, 5 nM Fluormone Pan-PPAR Green, and serial dilutions of the experimental compound, beginning at 10 ׬M downwards, was added to wells of black 384-well low-volume plates (Greiner) to a total volume of 18 ׬L. All dilutions were made in TR-FRET assay buffer C. DMSO at 2% final concentration was used as a no-ligand control. Experiment was performed in triplicate, and incubated for 2 hours in the dark prior to assay read in Perkin Elmer ViewLux ultra HTS microplate reader. FRET signal was measured by excitation at 340 nm and emission at 520 nm for fluorescein and 490 nm for terbium. Fold change over DMSO was calculated using GraphPad Prism Software (La Jolla, Calif.) by calculating 520 nm/490 nm ratio. Graphs were plotted as fold change of FRET signal for compound treatment over DMSO-only control.

$$$$
CHEMBL3695845
Actelion Java MolfileCreator 2.0

  0  0  0  0  0  0              0 V3000
M  V30 BEGIN CTAB
M  V30 COUNTS 39 43 0 0 0
M  V30 BEGIN ATOM
M  V30 1 F 6.0621 -1.9999 0.0 0
M  V30 2 C 5.1961 -1.4999 0.0 0
M  V30 3 C 5.1961 -0.5 0.0 0
M  V30 4 C 4.3301 -1.9999 0.0 0
M  V30 5 C 4.3301 0.0 0.0 0
M  V30 6 C 3.4641 -1.5 0.0 0
M  V30 7 C 3.4641 -0.5 0.0 0
M  V30 8 C 2.598 0.0 0.0 0 CFG=1
M  V30 9 N 1.732 -0.5 0.0 0
M  V30 10 C 2.598 1.0 0.0 0
M  V30 11 C 0.866 0.0 0.0 0
M  V30 12 O 0.866 1.0 0.0 0
M  V30 13 C 0.0 -0.5 0.0 0
M  V30 14 C 0.0 -1.4999 0.0 0
M  V30 15 C -0.866 0.0 0.0 0
M  V30 16 C -0.866 -1.9999 0.0 0
M  V30 17 C -1.732 -0.4999 0.0 0
M  V30 18 C -1.732 -1.4999 0.0 0
M  V30 19 C -1.0739 -2.9781 0.0 0
M  V30 20 N -2.4751 -2.1691 0.0 0
M  V30 21 C -2.0684 -3.0826 0.0 0
M  V30 22 C -0.4048 -3.7212 0.0 0
M  V30 23 C -3.4533 -1.9612 0.0 0
M  V30 24 C -2.5684 -3.9487 0.0 0
M  V30 25 C -4.1224 -2.7043 0.0 0
M  V30 26 C -5.1006 -2.4964 0.0 0
M  V30 27 C -3.8134 -3.6554 0.0 0
M  V30 28 C -5.7697 -3.2395 0.0 0
M  V30 29 C -4.4825 -4.3985 0.0 0
M  V30 30 C -5.4607 -4.1906 0.0 0
M  V30 31 C -6.1298 -4.9337 0.0 0
M  V30 32 C -7.108 -4.7258 0.0 0
M  V30 33 C -5.8208 -5.8848 0.0 0
M  V30 34 C -7.417 -3.7748 0.0 0
M  V30 35 C -7.7771 -5.469 0.0 0
M  V30 36 C -6.4899 -6.6279 0.0 0
M  V30 37 O -6.7478 -3.0316 0.0 0
M  V30 38 O -8.3951 -3.5669 0.0 0
M  V30 39 C -7.4681 -6.42 0.0 0
M  V30 END ATOM
M  V30 BEGIN BOND
M  V30 1 1 1 2
M  V30 2 2 2 3
M  V30 3 1 2 4
M  V30 4 1 3 5
M  V30 5 2 4 6
M  V30 6 2 5 7
M  V30 7 1 7 8
M  V30 8 1 8 9
M  V30 9 1 8 10 CFG=1
M  V30 10 1 9 11
M  V30 11 2 11 12
M  V30 12 1 11 13
M  V30 13 2 13 14
M  V30 14 1 13 15
M  V30 15 1 14 16
M  V30 16 2 15 17
M  V30 17 2 16 18
M  V30 18 1 16 19
M  V30 19 1 18 20
M  V30 20 2 19 21
M  V30 21 1 19 22
M  V30 22 1 20 23
M  V30 23 1 21 24
M  V30 24 1 23 25
M  V30 25 2 25 26
M  V30 26 1 25 27
M  V30 27 1 26 28
M  V30 28 2 27 29
M  V30 29 2 28 30
M  V30 30 1 30 31
M  V30 31 2 31 32
M  V30 32 1 31 33
M  V30 33 1 32 34
M  V30 34 1 32 35
M  V30 35 2 33 36
M  V30 36 2 34 37
M  V30 37 1 34 38
M  V30 38 2 35 39
M  V30 39 1 6 7
M  V30 40 1 17 18
M  V30 41 1 20 21
M  V30 42 1 29 30
M  V30 43 1 36 39
M  V30 END BOND
M  V30 BEGIN COLLECTION
M  V30 MDLV30/STEABS ATOMS=(1 8)
M  V30 END COLLECTION
M  V30 END CTAB
M  END
>  <Molecule ChEMBL ID>
CHEMBL3695845

>  <Smiles>
Cc1c(C)n(Cc2ccc(-c3ccccc3C(=O)O)cc2)c2ccc(C(=O)N[C@@H](C)c3ccc(F)cc3)cc12

>  <IC50_nM>
21

>  <Assay Description>
Lanthascreen Competitive Binding Assay: The assay was performed according to manufacturer protocol. A mixture of nM GST-PPARG-LBD, 5 nM Tb-GST-antibody, 5 nM Fluormone Pan-PPAR Green, and serial dilutions of the experimental compound, beginning at 10 ׬M downwards, was added to wells of black 384-well low-volume plates (Greiner) to a total volume of 18 ׬L. All dilutions were made in TR-FRET assay buffer C. DMSO at 2% final concentration was used as a no-ligand control. Experiment was performed in triplicate, and incubated for 2 hours in the dark prior to assay read in Perkin Elmer ViewLux ultra HTS microplate reader. FRET signal was measured by excitation at 340 nm and emission at 520 nm for fluorescein and 490 nm for terbium. Fold change over DMSO was calculated using GraphPad Prism Software (La Jolla, Calif.) by calculating 520 nm/490 nm ratio. Graphs were plotted as fold change of FRET signal for compound treatment over DMSO-only control.

$$$$
CHEMBL1933822
Actelion Java MolfileCreator 2.0

  0  0  0  0  0  0              0 V3000
M  V30 BEGIN CTAB
M  V30 COUNTS 34 35 0 0 0
M  V30 BEGIN ATOM
M  V30 1 Cl 14.8856 -4.1725 0.0 0
M  V30 2 C 13.7709 -5.1762 0.0 0
M  V30 3 C 12.3443 -4.7127 0.0 0
M  V30 4 C 14.0827 -6.6434 0.0 0
M  V30 5 C 11.2296 -5.7164 0.0 0
M  V30 6 C 12.0324 -3.2454 0.0 0
M  V30 7 C 12.968 -7.6471 0.0 0
M  V30 8 C 11.5414 -7.1836 0.0 0
M  V30 9 N 13.1471 -2.2417 0.0 0
M  V30 10 C 13.2799 -9.1143 0.0 0
M  V30 11 N 14.6144 -2.5536 0.0 0
M  V30 12 C 12.9903 -0.75 0.0 0
M  V30 13 F 14.7471 -8.8025 0.0 0
M  V30 14 F 13.5918 -10.5815 0.0 0
M  V30 15 F 11.8127 -9.4262 0.0 0
M  V30 16 C 15.3644 -1.2546 0.0 0
M  V30 17 C 14.3607 -0.1398 0.0 0
M  V30 18 C 11.6913 0.0 0.0 0
M  V30 19 O 16.8561 -1.0978 0.0 0
M  V30 20 C 11.6913 1.5 0.0 0
M  V30 21 C 17.7378 -2.3113 0.0 0
M  V30 22 C 10.3923 2.25 0.0 0
M  V30 23 C 17.1277 -3.6816 0.0 0
M  V30 24 C 19.2296 -2.1545 0.0 0
M  V30 25 O 9.0932 1.5 0.0 0
M  V30 26 N 10.3923 3.75 0.0 0
M  V30 27 S 9.0932 4.5 0.0 0
M  V30 28 O 8.3433 3.2009 0.0 0
M  V30 29 O 7.5933 4.5 0.0 0
M  V30 30 C 9.0932 6.0 0.0 0
M  V30 31 C 7.7942 6.75 0.0 0
M  V30 32 C 7.7942 8.25 0.0 0
M  V30 33 C 6.4951 9.0 0.0 0
M  V30 34 C 6.4951 10.5 0.0 0
M  V30 END ATOM
M  V30 BEGIN BOND
M  V30 1 1 1 2
M  V30 2 2 2 3
M  V30 3 1 2 4
M  V30 4 1 3 5
M  V30 5 1 3 6
M  V30 6 2 4 7
M  V30 7 2 5 8
M  V30 8 1 6 9
M  V30 9 1 7 10
M  V30 10 1 9 11
M  V30 11 1 9 12
M  V30 12 1 10 13
M  V30 13 1 10 14
M  V30 14 1 10 15
M  V30 15 2 11 16
M  V30 16 2 12 17
M  V30 17 1 12 18
M  V30 18 1 16 19
M  V30 19 1 18 20
M  V30 20 1 19 21
M  V30 21 1 20 22
M  V30 22 1 21 23
M  V30 23 1 21 24
M  V30 24 2 22 25
M  V30 25 1 22 26
M  V30 26 1 26 27
M  V30 27 2 27 28
M  V30 28 2 27 29
M  V30 29 1 27 30
M  V30 30 1 30 31
M  V30 31 1 31 32
M  V30 32 1 32 33
M  V30 33 1 33 34
M  V30 34 1 7 8
M  V30 35 1 16 17
M  V30 END BOND
M  V30 END CTAB
M  END
>  <Molecule ChEMBL ID>
CHEMBL1933822

>  <Smiles>
CCCCCS(=O)(=O)NC(=O)CCc1cc(OC(C)C)nn1Cc1ccc(C(F)(F)F)cc1Cl

>  <IC50_nM>
21

>  <Assay Description>
Displacement of [3H]-AD-5061 from human GST-tagged PPARgamma

$$$$
CHEMBL198623
Actelion Java MolfileCreator 2.0

  0  0  0  0  0  0              0 V3000
M  V30 BEGIN CTAB
M  V30 COUNTS 34 37 0 0 0
M  V30 BEGIN ATOM
M  V30 1 Cl 5.8147 -1.7024 0.0 0
M  V30 2 C 4.8147 -1.7024 0.0 0
M  V30 3 N 4.3147 -0.8364 0.0 0
M  V30 4 C 4.3147 -2.5684 0.0 0
M  V30 5 C 3.3147 -0.8364 0.0 0
M  V30 6 C 3.3147 -2.5684 0.0 0
M  V30 7 N 2.6455 -0.0932 0.0 0
M  V30 8 C 2.8147 -1.7024 0.0 0
M  V30 9 C 2.8535 0.8848 0.0 0
M  V30 10 C 1.732 -0.5 0.0 0
M  V30 11 C 1.8365 -1.4945 0.0 0
M  V30 12 C 3.8045 1.1939 0.0 0
M  V30 13 C 2.1103 1.554 0.0 0
M  V30 14 C 0.866 0.0 0.0 0
M  V30 15 O 1.0934 -2.1636 0.0 0
M  V30 16 C 4.0124 2.172 0.0 0
M  V30 17 C 2.3182 2.5321 0.0 0
M  V30 18 O 0.866 1.0 0.0 0
M  V30 19 O 0.0 -0.5 0.0 0
M  V30 20 C 1.3013 -3.1418 0.0 0
M  V30 21 C 3.2693 2.8411 0.0 0
M  V30 22 C 0.5582 -3.8109 0.0 0
M  V30 23 C 2.2524 -3.4508 0.0 0
M  V30 24 C 3.4772 3.8193 0.0 0
M  V30 25 C 0.7661 -4.789 0.0 0
M  V30 26 C 2.4603 -4.4289 0.0 0
M  V30 27 C 2.499 4.0272 0.0 0
M  V30 28 C 3.6851 4.7974 0.0 0
M  V30 29 C 4.4553 3.6114 0.0 0
M  V30 30 C 1.7171 -5.098 0.0 0
M  V30 31 C 0.0229 -5.4582 0.0 0
M  V30 32 F 0.692 -6.2013 0.0 0
M  V30 33 F -0.7201 -6.1273 0.0 0
M  V30 34 F -0.6461 -4.715 0.0 0
M  V30 END ATOM
M  V30 BEGIN BOND
M  V30 1 1 1 2
M  V30 2 2 2 3
M  V30 3 1 2 4
M  V30 4 1 3 5
M  V30 5 2 4 6
M  V30 6 1 5 7
M  V30 7 2 5 8
M  V30 8 1 7 9
M  V30 9 1 7 10
M  V30 10 1 8 11
M  V30 11 2 9 12
M  V30 12 1 9 13
M  V30 13 1 10 14
M  V30 14 1 11 15
M  V30 15 1 12 16
M  V30 16 2 13 17
M  V30 17 2 14 18
M  V30 18 1 14 19
M  V30 19 1 15 20
M  V30 20 2 16 21
M  V30 21 2 20 22
M  V30 22 1 20 23
M  V30 23 1 21 24
M  V30 24 1 22 25
M  V30 25 2 23 26
M  V30 26 1 24 27
M  V30 27 1 24 28
M  V30 28 1 24 29
M  V30 29 2 25 30
M  V30 30 1 25 31
M  V30 31 1 31 32
M  V30 32 1 31 33
M  V30 33 1 31 34
M  V30 34 1 6 8
M  V30 35 2 10 11
M  V30 36 1 17 21
M  V30 37 1 26 30
M  V30 END BOND
M  V30 END CTAB
M  END
>  <Molecule ChEMBL ID>
CHEMBL198623

>  <Smiles>
CC(C)(C)c1ccc(-n2c(C(=O)O)c(Oc3cccc(C(F)(F)F)c3)c3ccc(Cl)nc32)cc1

>  <IC50_nM>
21

>  <Assay Description>
Inhibitory concentration against human peroxisome proliferator activated receptor gamma in SPA assay

$$$$
CHEMBL2331782
Actelion Java MolfileCreator 2.0

  0  0  0  0  0  0              0 V3000
M  V30 BEGIN CTAB
M  V30 COUNTS 27 29 0 0 0
M  V30 BEGIN ATOM
M  V30 1 Cl 2.598 2.25 0.0 0
M  V30 2 C 3.8971 1.5 0.0 0
M  V30 3 C 3.8971 0.0 0.0 0
M  V30 4 C 5.1961 2.25 0.0 0
M  V30 5 S 2.598 -0.75 0.0 0
M  V30 6 C 5.1961 -0.75 0.0 0
M  V30 7 C 6.4952 1.5 0.0 0
M  V30 8 O 1.848 -2.049 0.0 0
M  V30 9 O 3.348 -2.049 0.0 0
M  V30 10 N 1.299 0.0 0.0 0
M  V30 11 C 6.4952 0.0 0.0 0
M  V30 12 Cl 7.7942 2.25 0.0 0
M  V30 13 C 0.0 -0.75 0.0 0
M  V30 14 C -1.299 0.0 0.0 0
M  V30 15 C 0.0 -2.25 0.0 0
M  V30 16 C -2.598 -0.75 0.0 0
M  V30 17 C -1.299 -3.0 0.0 0
M  V30 18 Cl -3.8971 0.0 0.0 0
M  V30 19 C -2.598 -2.25 0.0 0
M  V30 20 O -3.8971 -3.0 0.0 0
M  V30 21 C -3.8971 -4.5 0.0 0
M  V30 22 C -5.1961 -5.25 0.0 0
M  V30 23 C -2.598 -5.25 0.0 0
M  V30 24 N -5.1961 -6.75 0.0 0
M  V30 25 C -2.598 -6.75 0.0 0
M  V30 26 C -3.8971 -7.5 0.0 0
M  V30 27 Cl -1.299 -7.5 0.0 0
M  V30 END ATOM
M  V30 BEGIN BOND
M  V30 1 1 1 2
M  V30 2 2 2 3
M  V30 3 1 2 4
M  V30 4 1 3 5
M  V30 5 1 3 6
M  V30 6 2 4 7
M  V30 7 2 5 8
M  V30 8 2 5 9
M  V30 9 1 5 10
M  V30 10 2 6 11
M  V30 11 1 7 12
M  V30 12 1 10 13
M  V30 13 2 13 14
M  V30 14 1 13 15
M  V30 15 1 14 16
M  V30 16 2 15 17
M  V30 17 1 16 18
M  V30 18 2 16 19
M  V30 19 1 19 20
M  V30 20 1 20 21
M  V30 21 2 21 22
M  V30 22 1 21 23
M  V30 23 1 22 24
M  V30 24 2 23 25
M  V30 25 2 24 26
M  V30 26 1 25 27
M  V30 27 1 7 11
M  V30 28 1 17 19
M  V30 29 1 25 26
M  V30 END BOND
M  V30 END CTAB
M  END
>  <Molecule ChEMBL ID>
CHEMBL2331782

>  <Smiles>
O=S(=O)(Nc1ccc(Oc2cncc(Cl)c2)c(Cl)c1)c1ccc(Cl)cc1Cl

>  <IC50_nM>
21

>  <Assay Description>
Displacement of [3H]-rosiglitazone from GST-tagged PPARgammaLBD (unknown origin) after 1 hr by scintillation proximity assay

$$$$
CHEMBL219836
Actelion Java MolfileCreator 2.0

  0  0  0  0  0  0              0 V3000
M  V30 BEGIN CTAB
M  V30 COUNTS 42 46 0 0 0
M  V30 BEGIN ATOM
M  V30 1 O 4.3301 0.0 0.0 0
M  V30 2 C 3.4641 -0.5 0.0 0
M  V30 3 O 2.598 0.0 0.0 0
M  V30 4 N 3.4641 -1.5 0.0 0
M  V30 5 C 1.732 -0.5 0.0 0
M  V30 6 C 2.598 -2.0 0.0 0
M  V30 7 C 4.3301 -2.0 0.0 0
M  V30 8 C 0.866 0.0 0.0 0
M  V30 9 C 2.598 -3.0 0.0 0
M  V30 10 C 4.3301 -2.9999 0.0 0
M  V30 11 C 0.0 -0.5 0.0 0
M  V30 12 C 3.4641 -3.5 0.0 0
M  V30 13 C 1.732 -3.5 0.0 0
M  V30 14 C 3.4641 -4.5 0.0 0
M  V30 15 C 1.732 -4.4999 0.0 0
M  V30 16 C 0.866 -3.0 0.0 0
M  V30 17 O 4.3301 -5.0 0.0 0
M  V30 18 C 2.598 -5.0 0.0 0
M  V30 19 C 0.0 -3.4999 0.0 0
M  V30 20 C 5.1961 -4.5 0.0 0
M  V30 21 C -0.866 -2.9999 0.0 0
M  V30 22 C 6.0621 -5.0 0.0 0
M  V30 23 O -0.866 -1.9999 0.0 0
M  V30 24 O -1.732 -3.4999 0.0 0
M  V30 25 C 6.9282 -4.5 0.0 0
M  V30 26 N 7.8417 -4.9067 0.0 0
M  V30 27 C 7.0327 -3.5054 0.0 0
M  V30 28 C 8.5108 -4.1635 0.0 0
M  V30 29 O 8.0108 -3.2975 0.0 0
M  V30 30 C 6.2895 -2.8363 0.0 0
M  V30 31 C 9.5054 -4.2681 0.0 0
M  V30 32 C 9.9121 -5.1816 0.0 0
M  V30 33 C 10.0931 -3.4591 0.0 0
M  V30 34 C 10.9066 -5.2861 0.0 0
M  V30 35 C 11.0877 -3.5636 0.0 0
M  V30 36 C 11.4944 -4.4771 0.0 0
M  V30 37 C 12.4889 -4.5817 0.0 0
M  V30 38 C 12.8957 -5.4952 0.0 0
M  V30 39 C 13.0767 -3.7726 0.0 0
M  V30 40 C 13.8902 -5.5997 0.0 0
M  V30 41 C 14.0712 -3.8772 0.0 0
M  V30 42 C 14.478 -4.7907 0.0 0
M  V30 END ATOM
M  V30 BEGIN BOND
M  V30 1 2 1 2
M  V30 2 1 2 3
M  V30 3 1 2 4
M  V30 4 1 3 5
M  V30 5 1 4 6
M  V30 6 1 4 7
M  V30 7 1 5 8
M  V30 8 1 6 9
M  V30 9 1 7 10
M  V30 10 1 8 11
M  V30 11 2 9 12
M  V30 12 1 9 13
M  V30 13 1 12 14
M  V30 14 2 13 15
M  V30 15 1 13 16
M  V30 16 1 14 17
M  V30 17 2 14 18
M  V30 18 1 16 19
M  V30 19 1 17 20
M  V30 20 1 19 21
M  V30 21 1 20 22
M  V30 22 2 21 23
M  V30 23 1 21 24
M  V30 24 1 22 25
M  V30 25 1 25 26
M  V30 26 2 25 27
M  V30 27 2 26 28
M  V30 28 1 27 29
M  V30 29 1 27 30
M  V30 30 1 28 31
M  V30 31 2 31 32
M  V30 32 1 31 33
M  V30 33 1 32 34
M  V30 34 2 33 35
M  V30 35 2 34 36
M  V30 36 1 36 37
M  V30 37 2 37 38
M  V30 38 1 37 39
M  V30 39 1 38 40
M  V30 40 2 39 41
M  V30 41 2 40 42
M  V30 42 1 10 12
M  V30 43 1 15 18
M  V30 44 1 28 29
M  V30 45 1 35 36
M  V30 46 1 41 42
M  V30 END BOND
M  V30 END CTAB
M  END
>  <Molecule ChEMBL ID>
CHEMBL219836

>  <Smiles>
CCCOC(=O)N1CCc2c(OCCc3nc(-c4ccc(-c5ccccc5)cc4)oc3C)ccc(CCC(=O)O)c2C1

>  <IC50_nM>
21

>  <Assay Description>
Displacement of tritium labeled ligand from human PPARgamma by SPA assay

$$$$
CHEMBL3695874
Actelion Java MolfileCreator 2.0

  0  0  0  0  0  0              0 V3000
M  V30 BEGIN CTAB
M  V30 COUNTS 38 42 0 0 0
M  V30 BEGIN ATOM
M  V30 1 O 3.4641 -0.4999 0.0 0
M  V30 2 C 2.598 0.0 0.0 0
M  V30 3 N 1.732 -0.4999 0.0 0
M  V30 4 C 2.598 1.0 0.0 0
M  V30 5 C 0.866 0.0 0.0 0 CFG=2
M  V30 6 C 1.732 1.4999 0.0 0
M  V30 7 C 3.4641 1.5 0.0 0
M  V30 8 C 0.0 -0.4999 0.0 0
M  V30 9 C 0.866 1.0 0.0 0
M  V30 10 C 1.732 2.4999 0.0 0
M  V30 11 C 3.4641 2.5 0.0 0
M  V30 12 C -0.866 0.0 0.0 0
M  V30 13 C 0.0 -1.5 0.0 0
M  V30 14 C 2.598 3.0 0.0 0
M  V30 15 C 0.9889 3.1691 0.0 0
M  V30 16 C -1.732 -0.4999 0.0 0
M  V30 17 C -0.866 -1.9999 0.0 0
M  V30 18 N 2.3901 3.9781 0.0 0
M  V30 19 C 1.3956 4.0826 0.0 0
M  V30 20 C 0.0107 2.9612 0.0 0
M  V30 21 O -2.598 0.0 0.0 0
M  V30 22 C -1.732 -1.4999 0.0 0
M  V30 23 C 3.0592 4.7212 0.0 0
M  V30 24 C 0.8956 4.9487 0.0 0
M  V30 25 C -3.4641 -0.4999 0.0 0
M  V30 26 C 2.7502 5.6723 0.0 0
M  V30 27 C -4.3301 0.0 0.0 0
M  V30 28 C 3.4194 6.4154 0.0 0
M  V30 29 C 1.7721 5.8802 0.0 0
M  V30 30 C 3.1103 7.3665 0.0 0
M  V30 31 C 1.4631 6.8313 0.0 0
M  V30 32 C 2.1322 7.5744 0.0 0
M  V30 33 C 1.8232 8.5255 0.0 0
M  V30 34 C 2.4923 9.2686 0.0 0
M  V30 35 C 0.845 8.7334 0.0 0
M  V30 36 C 2.1833 10.2197 0.0 0
M  V30 37 C 0.536 9.6844 0.0 0
M  V30 38 C 1.2051 10.4276 0.0 0
M  V30 END ATOM
M  V30 BEGIN BOND
M  V30 1 2 1 2
M  V30 2 1 2 3
M  V30 3 1 2 4
M  V30 4 1 3 5
M  V30 5 2 4 6
M  V30 6 1 4 7
M  V30 7 1 5 8
M  V30 8 1 5 9 CFG=3
M  V30 9 1 6 10
M  V30 10 2 7 11
M  V30 11 2 8 12
M  V30 12 1 8 13
M  V30 13 2 10 14
M  V30 14 1 10 15
M  V30 15 1 12 16
M  V30 16 2 13 17
M  V30 17 1 14 18
M  V30 18 2 15 19
M  V30 19 1 15 20
M  V30 20 1 16 21
M  V30 21 2 16 22
M  V30 22 1 18 23
M  V30 23 1 19 24
M  V30 24 1 21 25
M  V30 25 1 23 26
M  V30 26 1 25 27
M  V30 27 2 26 28
M  V30 28 1 26 29
M  V30 29 1 28 30
M  V30 30 2 29 31
M  V30 31 2 30 32
M  V30 32 1 32 33
M  V30 33 2 33 34
M  V30 34 1 33 35
M  V30 35 1 34 36
M  V30 36 2 35 37
M  V30 37 2 36 38
M  V30 38 1 11 14
M  V30 39 1 17 22
M  V30 40 1 18 19
M  V30 41 1 31 32
M  V30 42 1 37 38
M  V30 END BOND
M  V30 BEGIN COLLECTION
M  V30 MDLV30/STEABS ATOMS=(1 5)
M  V30 END COLLECTION
M  V30 END CTAB
M  END
>  <Molecule ChEMBL ID>
CHEMBL3695874

>  <Smiles>
CCOc1cccc([C@H](C)NC(=O)c2ccc3c(c2)c(C)c(C)n3Cc2ccc(-c3ccccc3)cc2)c1

>  <IC50_nM>
21

>  <Assay Description>
Lanthascreen Competitive Binding Assay: The assay was performed according to manufacturer protocol. A mixture of nM GST-PPARG-LBD, 5 nM Tb-GST-antibody, 5 nM Fluormone Pan-PPAR Green, and serial dilutions of the experimental compound, beginning at 10 ׬M downwards, was added to wells of black 384-well low-volume plates (Greiner) to a total volume of 18 ׬L. All dilutions were made in TR-FRET assay buffer C. DMSO at 2% final concentration was used as a no-ligand control. Experiment was performed in triplicate, and incubated for 2 hours in the dark prior to assay read in Perkin Elmer ViewLux ultra HTS microplate reader. FRET signal was measured by excitation at 340 nm and emission at 520 nm for fluorescein and 490 nm for terbium. Fold change over DMSO was calculated using GraphPad Prism Software (La Jolla, Calif.) by calculating 520 nm/490 nm ratio. Graphs were plotted as fold change of FRET signal for compound treatment over DMSO-only control.

$$$$
CHEMBL484962
Actelion Java MolfileCreator 2.0

  0  0  0  0  0  0              0 V3000
M  V30 BEGIN CTAB
M  V30 COUNTS 32 35 0 0 0
M  V30 BEGIN ATOM
M  V30 1 S 5.3804 2.5036 0.0 0
M  V30 2 C 6.4951 1.5 0.0 0
M  V30 3 C 5.9905 3.874 0.0 0
M  V30 4 C 6.4951 0.0 0.0 0
M  V30 5 C 7.7942 2.25 0.0 0
M  V30 6 C 7.4823 3.7172 0.0 0
M  V30 7 C 7.7942 -0.7499 0.0 0
M  V30 8 C 5.1961 -0.75 0.0 0
M  V30 9 C 9.0932 1.4999 0.0 0
M  V30 10 C 9.0932 0.0 0.0 0
M  V30 11 C 5.1961 -2.25 0.0 0 CFG=2
M  V30 12 O 10.3923 2.2499 0.0 0
M  V30 13 O 3.8971 -3.0 0.0 0
M  V30 14 C 6.4951 -3.0 0.0 0
M  V30 15 C 10.3923 3.75 0.0 0
M  V30 16 C 3.8971 -4.5 0.0 0
M  V30 17 O 7.7942 -2.25 0.0 0
M  V30 18 O 6.4951 -4.5 0.0 0
M  V30 19 C 11.6913 4.5 0.0 0
M  V30 20 C 2.598 -5.25 0.0 0
M  V30 21 C 11.6913 6.0 0.0 0
M  V30 22 N 12.9048 6.8816 0.0 0
M  V30 23 C 10.4778 6.8816 0.0 0
M  V30 24 C 12.4413 8.3082 0.0 0
M  V30 25 O 10.9413 8.3082 0.0 0
M  V30 26 C 9.0512 6.4181 0.0 0
M  V30 27 C 13.323 9.5217 0.0 0
M  V30 28 C 14.8148 9.3649 0.0 0
M  V30 29 C 12.7129 10.8921 0.0 0
M  V30 30 C 15.6964 10.5785 0.0 0
M  V30 31 C 13.5945 12.1056 0.0 0
M  V30 32 C 15.0863 11.9488 0.0 0
M  V30 END ATOM
M  V30 BEGIN BOND
M  V30 1 1 1 2
M  V30 2 1 1 3
M  V30 3 2 2 4
M  V30 4 1 2 5
M  V30 5 2 3 6
M  V30 6 1 4 7
M  V30 7 1 4 8
M  V30 8 2 5 9
M  V30 9 2 7 10
M  V30 10 1 8 11
M  V30 11 1 9 12
M  V30 12 1 11 13 CFG=1
M  V30 13 1 11 14
M  V30 14 1 12 15
M  V30 15 1 13 16
M  V30 16 2 14 17
M  V30 17 1 14 18
M  V30 18 1 15 19
M  V30 19 1 16 20
M  V30 20 1 19 21
M  V30 21 1 21 22
M  V30 22 2 21 23
M  V30 23 2 22 24
M  V30 24 1 23 25
M  V30 25 1 23 26
M  V30 26 1 24 27
M  V30 27 2 27 28
M  V30 28 1 27 29
M  V30 29 1 28 30
M  V30 30 2 29 31
M  V30 31 2 30 32
M  V30 32 1 5 6
M  V30 33 1 9 10
M  V30 34 1 24 25
M  V30 35 1 31 32
M  V30 END BOND
M  V30 BEGIN COLLECTION
M  V30 MDLV30/STEABS ATOMS=(1 11)
M  V30 END COLLECTION
M  V30 END CTAB
M  END
>  <Molecule ChEMBL ID>
CHEMBL484962

>  <Smiles>
CCO[C@@H](Cc1ccc(OCCc2nc(-c3ccccc3)oc2C)c2ccsc12)C(=O)O

>  <IC50_nM>
21

>  <Assay Description>
Displacement of radio labeled 2(S)-(2-benzoyl-phenylamino)-3-{4-[1,1-ditritio-2-(5-methyl-2-phenyl-oxazol-4-yl)-ethoxy]-phenyl}-propionic acid from GST-fused human PPARgamma expressed in Escherichia coli BL21 cells by scintillation proximity assay

$$$$
CHEMBL182884
Actelion Java MolfileCreator 2.0

  0  0  0  0  0  0              0 V3000
M  V30 BEGIN CTAB
M  V30 COUNTS 30 32 0 0 0
M  V30 BEGIN ATOM
M  V30 1 O 8.6602 -4.5 0.0 0
M  V30 2 C 8.6602 -3.5 0.0 0
M  V30 3 O 9.5262 -3.0 0.0 0
M  V30 4 C 7.7942 -3.0 0.0 0 CFG=1
M  V30 5 O 6.9282 -3.5 0.0 0
M  V30 6 C 7.7942 -2.0 0.0 0
M  V30 7 C 6.9282 -4.5 0.0 0
M  V30 8 C 6.9282 -1.5 0.0 0
M  V30 9 C 6.9282 -0.5 0.0 0
M  V30 10 C 6.0621 -2.0 0.0 0
M  V30 11 C 6.0621 0.0 0.0 0
M  V30 12 C 5.1961 -1.5 0.0 0
M  V30 13 C 5.1961 -0.5 0.0 0
M  V30 14 O 4.3301 0.0 0.0 0
M  V30 15 C 3.4641 -0.5 0.0 0
M  V30 16 C 2.598 0.0 0.0 0
M  V30 17 C 1.732 -0.5 0.0 0
M  V30 18 O 0.866 0.0 0.0 0
M  V30 19 C 0.0 -0.5 0.0 0
M  V30 20 C -0.866 0.0 0.0 0
M  V30 21 C 0.0 -1.4999 0.0 0
M  V30 22 C -1.732 -0.4999 0.0 0
M  V30 23 C -0.866 -1.9999 0.0 0
M  V30 24 C -1.732 -1.4999 0.0 0
M  V30 25 C -2.598 -1.9999 0.0 0
M  V30 26 C -3.4641 -1.4999 0.0 0
M  V30 27 C -2.598 -2.9999 0.0 0
M  V30 28 C -4.3301 -1.9999 0.0 0
M  V30 29 C -3.4641 -3.4999 0.0 0
M  V30 30 C -4.3301 -2.9999 0.0 0
M  V30 END ATOM
M  V30 BEGIN BOND
M  V30 1 2 1 2
M  V30 2 1 2 3
M  V30 3 1 2 4
M  V30 4 1 4 5 CFG=1
M  V30 5 1 4 6
M  V30 6 1 5 7
M  V30 7 1 6 8
M  V30 8 2 8 9
M  V30 9 1 8 10
M  V30 10 1 9 11
M  V30 11 2 10 12
M  V30 12 2 11 13
M  V30 13 1 13 14
M  V30 14 1 14 15
M  V30 15 1 15 16
M  V30 16 1 16 17
M  V30 17 1 17 18
M  V30 18 1 18 19
M  V30 19 2 19 20
M  V30 20 1 19 21
M  V30 21 1 20 22
M  V30 22 2 21 23
M  V30 23 2 22 24
M  V30 24 1 24 25
M  V30 25 2 25 26
M  V30 26 1 25 27
M  V30 27 1 26 28
M  V30 28 2 27 29
M  V30 29 2 28 30
M  V30 30 1 12 13
M  V30 31 1 23 24
M  V30 32 1 29 30
M  V30 END BOND
M  V30 BEGIN COLLECTION
M  V30 MDLV30/STEABS ATOMS=(1 4)
M  V30 END COLLECTION
M  V30 END CTAB
M  END
>  <Molecule ChEMBL ID>
CHEMBL182884

>  <Smiles>
CO[C@@H](Cc1ccc(OCCCOc2ccc(-c3ccccc3)cc2)cc1)C(=O)O

>  <IC50_nM>
21

>  <Assay Description>
Mean inhibitory concentration against human peroxisome proliferator-activated receptor gamma

$$$$
CHEMBL2331772
Actelion Java MolfileCreator 2.0

  0  0  0  0  0  0              0 V3000
M  V30 BEGIN CTAB
M  V30 COUNTS 28 30 0 0 0
M  V30 BEGIN ATOM
M  V30 1 Cl 7.7942 -0.75 0.0 0
M  V30 2 C 6.4952 0.0 0.0 0
M  V30 3 C 6.4952 1.5 0.0 0
M  V30 4 C 5.1961 -0.75 0.0 0
M  V30 5 O 7.7942 2.25 0.0 0
M  V30 6 C 5.1961 2.25 0.0 0
M  V30 7 C 3.8971 0.0 0.0 0
M  V30 8 C 7.7942 3.75 0.0 0
M  V30 9 Cl 5.1961 3.75 0.0 0
M  V30 10 C 3.8971 1.5 0.0 0
M  V30 11 N 2.598 -0.75 0.0 0
M  V30 12 C 9.0932 4.5 0.0 0
M  V30 13 C 6.4952 4.5 0.0 0
M  V30 14 S 1.299 0.0 0.0 0
M  V30 15 N 9.0932 6.0 0.0 0
M  V30 16 C 6.4952 6.0 0.0 0
M  V30 17 O 2.049 1.299 0.0 0
M  V30 18 O 0.549 1.299 0.0 0
M  V30 19 C 0.0 -0.75 0.0 0
M  V30 20 C 7.7942 6.75 0.0 0
M  V30 21 Cl 5.1961 6.75 0.0 0
M  V30 22 C -1.299 0.0 0.0 0
M  V30 23 C 0.0 -2.25 0.0 0
M  V30 24 Cl -1.299 1.5 0.0 0
M  V30 25 C -2.598 -0.75 0.0 0
M  V30 26 C -1.299 -3.0 0.0 0
M  V30 27 C -2.598 -2.25 0.0 0
M  V30 28 Cl -3.8971 -3.0 0.0 0
M  V30 END ATOM
M  V30 BEGIN BOND
M  V30 1 1 1 2
M  V30 2 2 2 3
M  V30 3 1 2 4
M  V30 4 1 3 5
M  V30 5 1 3 6
M  V30 6 2 4 7
M  V30 7 1 5 8
M  V30 8 1 6 9
M  V30 9 2 6 10
M  V30 10 1 7 11
M  V30 11 2 8 12
M  V30 12 1 8 13
M  V30 13 1 11 14
M  V30 14 1 12 15
M  V30 15 2 13 16
M  V30 16 2 14 17
M  V30 17 2 14 18
M  V30 18 1 14 19
M  V30 19 2 15 20
M  V30 20 1 16 21
M  V30 21 2 19 22
M  V30 22 1 19 23
M  V30 23 1 22 24
M  V30 24 1 22 25
M  V30 25 2 23 26
M  V30 26 2 25 27
M  V30 27 1 27 28
M  V30 28 1 7 10
M  V30 29 1 16 20
M  V30 30 1 26 27
M  V30 END BOND
M  V30 END CTAB
M  END
>  <Molecule ChEMBL ID>
CHEMBL2331772

>  <Smiles>
O=S(=O)(Nc1cc(Cl)c(Oc2cncc(Cl)c2)c(Cl)c1)c1ccc(Cl)cc1Cl

>  <IC50_nM>
21

>  <Assay Description>
Displacement of [3H]-rosiglitazone from GST-tagged PPARgammaLBD (unknown origin) after 1 hr by scintillation proximity assay

$$$$
CHEMBL3695845
Actelion Java MolfileCreator 2.0

  0  0  0  0  0  0              0 V3000
M  V30 BEGIN CTAB
M  V30 COUNTS 39 43 0 0 0
M  V30 BEGIN ATOM
M  V30 1 F 6.0621 -1.9999 0.0 0
M  V30 2 C 5.1961 -1.4999 0.0 0
M  V30 3 C 5.1961 -0.5 0.0 0
M  V30 4 C 4.3301 -1.9999 0.0 0
M  V30 5 C 4.3301 0.0 0.0 0
M  V30 6 C 3.4641 -1.5 0.0 0
M  V30 7 C 3.4641 -0.5 0.0 0
M  V30 8 C 2.598 0.0 0.0 0 CFG=1
M  V30 9 N 1.732 -0.5 0.0 0
M  V30 10 C 2.598 1.0 0.0 0
M  V30 11 C 0.866 0.0 0.0 0
M  V30 12 O 0.866 1.0 0.0 0
M  V30 13 C 0.0 -0.5 0.0 0
M  V30 14 C 0.0 -1.4999 0.0 0
M  V30 15 C -0.866 0.0 0.0 0
M  V30 16 C -0.866 -1.9999 0.0 0
M  V30 17 C -1.732 -0.4999 0.0 0
M  V30 18 C -1.732 -1.4999 0.0 0
M  V30 19 C -1.0739 -2.9781 0.0 0
M  V30 20 N -2.4751 -2.1691 0.0 0
M  V30 21 C -2.0684 -3.0826 0.0 0
M  V30 22 C -0.4048 -3.7212 0.0 0
M  V30 23 C -3.4533 -1.9612 0.0 0
M  V30 24 C -2.5684 -3.9487 0.0 0
M  V30 25 C -4.1224 -2.7043 0.0 0
M  V30 26 C -5.1006 -2.4964 0.0 0
M  V30 27 C -3.8134 -3.6554 0.0 0
M  V30 28 C -5.7697 -3.2395 0.0 0
M  V30 29 C -4.4825 -4.3985 0.0 0
M  V30 30 C -5.4607 -4.1906 0.0 0
M  V30 31 C -6.1298 -4.9337 0.0 0
M  V30 32 C -7.108 -4.7258 0.0 0
M  V30 33 C -5.8208 -5.8848 0.0 0
M  V30 34 C -7.417 -3.7748 0.0 0
M  V30 35 C -7.7771 -5.469 0.0 0
M  V30 36 C -6.4899 -6.6279 0.0 0
M  V30 37 O -6.7478 -3.0316 0.0 0
M  V30 38 O -8.3951 -3.5669 0.0 0
M  V30 39 C -7.4681 -6.42 0.0 0
M  V30 END ATOM
M  V30 BEGIN BOND
M  V30 1 1 1 2
M  V30 2 2 2 3
M  V30 3 1 2 4
M  V30 4 1 3 5
M  V30 5 2 4 6
M  V30 6 2 5 7
M  V30 7 1 7 8
M  V30 8 1 8 9
M  V30 9 1 8 10 CFG=1
M  V30 10 1 9 11
M  V30 11 2 11 12
M  V30 12 1 11 13
M  V30 13 2 13 14
M  V30 14 1 13 15
M  V30 15 1 14 16
M  V30 16 2 15 17
M  V30 17 2 16 18
M  V30 18 1 16 19
M  V30 19 1 18 20
M  V30 20 2 19 21
M  V30 21 1 19 22
M  V30 22 1 20 23
M  V30 23 1 21 24
M  V30 24 1 23 25
M  V30 25 2 25 26
M  V30 26 1 25 27
M  V30 27 1 26 28
M  V30 28 2 27 29
M  V30 29 2 28 30
M  V30 30 1 30 31
M  V30 31 2 31 32
M  V30 32 1 31 33
M  V30 33 1 32 34
M  V30 34 1 32 35
M  V30 35 2 33 36
M  V30 36 2 34 37
M  V30 37 1 34 38
M  V30 38 2 35 39
M  V30 39 1 6 7
M  V30 40 1 17 18
M  V30 41 1 20 21
M  V30 42 1 29 30
M  V30 43 1 36 39
M  V30 END BOND
M  V30 BEGIN COLLECTION
M  V30 MDLV30/STEABS ATOMS=(1 8)
M  V30 END COLLECTION
M  V30 END CTAB
M  END
>  <Molecule ChEMBL ID>
CHEMBL3695845

>  <Smiles>
Cc1c(C)n(Cc2ccc(-c3ccccc3C(=O)O)cc2)c2ccc(C(=O)N[C@@H](C)c3ccc(F)cc3)cc12

>  <IC50_nM>
21

>  <Assay Description>
Binding affinity to GST-tagged PPAR-gamma-LBD (unknown origin) after 2 hrs by Lantha screen assay using fluormone Pan-PPAR green probe

$$$$
CHEMBL3699421
Actelion Java MolfileCreator 2.0

  0  0  0  0  0  0              0 V3000
M  V30 BEGIN CTAB
M  V30 COUNTS 39 44 0 0 0
M  V30 BEGIN ATOM
M  V30 1 O 9.4516 5.7369 0.0 0
M  V30 2 C 9.1426 4.7859 0.0 0
M  V30 3 O 8.1645 4.578 0.0 0
M  V30 4 C 9.8118 4.0427 0.0 0
M  V30 5 C 9.5027 3.0917 0.0 0
M  V30 6 C 10.7899 4.2506 0.0 0
M  V30 7 C 8.5246 2.8838 0.0 0
M  V30 8 C 10.1719 2.3485 0.0 0
M  V30 9 C 11.459 3.5075 0.0 0
M  V30 10 C 7.8555 3.6269 0.0 0
M  V30 11 C 8.2156 1.9327 0.0 0
M  V30 12 C 11.15 2.5564 0.0 0
M  V30 13 C 6.8773 3.419 0.0 0
M  V30 14 C 7.2374 1.7248 0.0 0
M  V30 15 C 6.5683 2.4679 0.0 0
M  V30 16 C 5.5902 2.26 0.0 0
M  V30 17 N 5.2811 1.309 0.0 0
M  V30 18 C 4.3301 1.0 0.0 0
M  V30 19 C 5.8689 0.5 0.0 0
M  V30 20 C 4.3301 0.0 0.0 0
M  V30 21 C 3.4641 1.5 0.0 0
M  V30 22 C 5.2811 -0.309 0.0 0
M  V30 23 C 6.8689 0.5 0.0 0
M  V30 24 C 3.4641 -0.4999 0.0 0
M  V30 25 C 2.598 0.9999 0.0 0
M  V30 26 C 5.5902 -1.26 0.0 0
M  V30 27 C 2.598 0.0 0.0 0
M  V30 28 C 1.732 -0.5 0.0 0
M  V30 29 O 1.732 -1.5 0.0 0
M  V30 30 N 0.866 0.0 0.0 0
M  V30 31 C 0.0 -0.5 0.0 0 CFG=1
M  V30 32 C -1.0 -0.4999 0.0 0 CFG=1
M  V30 33 C -0.5 -1.366 0.0 0
M  V30 34 C -1.866 0.0 0.0 0
M  V30 35 C -1.866 1.0 0.0 0
M  V30 36 C -2.732 -0.4999 0.0 0
M  V30 37 C -2.732 1.5 0.0 0
M  V30 38 C -3.598 0.0 0.0 0
M  V30 39 C -3.598 1.0 0.0 0
M  V30 END ATOM
M  V30 BEGIN BOND
M  V30 1 2 1 2
M  V30 2 1 2 3
M  V30 3 1 2 4
M  V30 4 2 4 5
M  V30 5 1 4 6
M  V30 6 1 5 7
M  V30 7 1 5 8
M  V30 8 2 6 9
M  V30 9 2 7 10
M  V30 10 1 7 11
M  V30 11 2 8 12
M  V30 12 1 10 13
M  V30 13 2 11 14
M  V30 14 2 13 15
M  V30 15 1 15 16
M  V30 16 1 16 17
M  V30 17 1 17 18
M  V30 18 1 17 19
M  V30 19 2 18 20
M  V30 20 1 18 21
M  V30 21 2 19 22
M  V30 22 1 19 23
M  V30 23 1 20 24
M  V30 24 2 21 25
M  V30 25 1 22 26
M  V30 26 2 24 27
M  V30 27 1 27 28
M  V30 28 2 28 29
M  V30 29 1 28 30
M  V30 30 1 31 30 CFG=3
M  V30 31 1 31 32
M  V30 32 1 31 33
M  V30 33 1 32 34 CFG=1
M  V30 34 2 34 35
M  V30 35 1 34 36
M  V30 36 1 35 37
M  V30 37 2 36 38
M  V30 38 2 37 39
M  V30 39 1 9 12
M  V30 40 1 14 15
M  V30 41 1 20 22
M  V30 42 1 25 27
M  V30 43 1 32 33
M  V30 44 1 38 39
M  V30 END BOND
M  V30 BEGIN COLLECTION
M  V30 MDLV30/STEABS ATOMS=(2 31 32)
M  V30 END COLLECTION
M  V30 END CTAB
M  END
>  <Molecule ChEMBL ID>
CHEMBL3699421

>  <Smiles>
Cc1c(C)n(Cc2ccc(-c3ccccc3C(=O)O)cc2)c2ccc(C(=O)N[C@@H]3C[C@H]3c3ccccc3)cc12

>  <IC50_nM>
22

>  <Assay Description>
Lanthascreen Competitive Binding Assay: The assay was performed according to manufacturer protocol. A mixture of nM GST-PPARG-LBD, 5 nM Tb-GST-antibody, 5 nM Fluormone Pan-PPAR Green, and serial dilutions of the experimental compound, beginning at 10 ׬M downwards, was added to wells of black 384-well low-volume plates (Greiner) to a total volume of 18 ׬L. All dilutions were made in TR-FRET assay buffer C. DMSO at 2% final concentration was used as a no-ligand control. Experiment was performed in triplicate, and incubated for 2 hours in the dark prior to assay read in Perkin Elmer ViewLux ultra HTS microplate reader. FRET signal was measured by excitation at 340 nm and emission at 520 nm for fluorescein and 490 nm for terbium. Fold change over DMSO was calculated using GraphPad Prism Software (La Jolla, Calif.) by calculating 520 nm/490 nm ratio. Graphs were plotted as fold change of FRET signal for compound treatment over DMSO-only control.

$$$$
CHEMBL223351
Actelion Java MolfileCreator 2.0

  0  0  0  0  0  0              0 V3000
M  V30 BEGIN CTAB
M  V30 COUNTS 34 36 0 0 0
M  V30 BEGIN ATOM
M  V30 1 S 11.4749 -1.7024 0.0 0
M  V30 2 C 11.9749 -0.8364 0.0 0
M  V30 3 C 10.4968 -1.4945 0.0 0
M  V30 4 N 11.3058 -0.0932 0.0 0
M  V30 5 N 12.9695 -0.7318 0.0 0
M  V30 6 C 10.3923 -0.5 0.0 0
M  V30 7 C 9.7536 -2.1636 0.0 0
M  V30 8 C 13.5572 -1.5408 0.0 0
M  V30 9 C 13.3762 0.1816 0.0 0
M  V30 10 C 9.5262 0.0 0.0 0
M  V30 11 C 14.5518 -1.4363 0.0 0
M  V30 12 C 14.3707 0.2861 0.0 0
M  V30 13 C 8.6602 -0.5 0.0 0
M  V30 14 O 14.9585 -0.5228 0.0 0
M  V30 15 O 7.7942 0.0 0.0 0
M  V30 16 C 6.9282 -0.5 0.0 0
M  V30 17 C 6.0621 0.0 0.0 0
M  V30 18 C 6.9282 -1.5 0.0 0
M  V30 19 C 5.1961 -0.5 0.0 0
M  V30 20 C 6.0621 -2.0 0.0 0
M  V30 21 C 5.1961 -1.5 0.0 0
M  V30 22 C 4.3301 0.0 0.0 0
M  V30 23 C 4.3301 -2.0 0.0 0
M  V30 24 N 3.4641 -0.5 0.0 0
M  V30 25 C 4.3301 -3.0 0.0 0
M  V30 26 C 2.598 0.0 0.0 0
M  V30 27 C 3.4641 -3.4999 0.0 0
M  V30 28 O 2.598 1.0 0.0 0
M  V30 29 O 1.732 -0.5 0.0 0
M  V30 30 O 2.598 -2.9999 0.0 0
M  V30 31 O 3.4641 -4.4999 0.0 0
M  V30 32 C 0.866 0.0 0.0 0
M  V30 33 C 0.866 1.0 0.0 0
M  V30 34 C 0.0 -0.5 0.0 0
M  V30 END ATOM
M  V30 BEGIN BOND
M  V30 1 1 1 2
M  V30 2 1 1 3
M  V30 3 2 2 4
M  V30 4 1 2 5
M  V30 5 2 3 6
M  V30 6 1 3 7
M  V30 7 1 5 8
M  V30 8 1 5 9
M  V30 9 1 6 10
M  V30 10 1 8 11
M  V30 11 1 9 12
M  V30 12 1 10 13
M  V30 13 1 11 14
M  V30 14 1 13 15
M  V30 15 1 15 16
M  V30 16 2 16 17
M  V30 17 1 16 18
M  V30 18 1 17 19
M  V30 19 2 18 20
M  V30 20 2 19 21
M  V30 21 1 19 22
M  V30 22 1 21 23
M  V30 23 1 22 24
M  V30 24 1 23 25
M  V30 25 1 24 26
M  V30 26 1 25 27
M  V30 27 2 26 28
M  V30 28 1 26 29
M  V30 29 2 27 30
M  V30 30 1 27 31
M  V30 31 1 29 32
M  V30 32 1 32 33
M  V30 33 1 32 34
M  V30 34 1 4 6
M  V30 35 1 12 14
M  V30 36 1 20 21
M  V30 END BOND
M  V30 END CTAB
M  END
>  <Molecule ChEMBL ID>
CHEMBL223351

>  <Smiles>
Cc1sc(N2CCOCC2)nc1CCOc1ccc(CCC(=O)O)c(CNC(=O)OC(C)C)c1

>  <IC50_nM>
22

>  <Assay Description>
Displacement of [3H]2-methyl-2-(4-{3-propyl-(5-pyridin-2yl-thiophene-2-sulfonyl)-amino]-pro-pyl}-phenoxy)-propionic acid from human PPARgamma

$$$$
CHEMBL3699354
Actelion Java MolfileCreator 2.0

  0  0  0  0  0  0              0 V3000
M  V30 BEGIN CTAB
M  V30 COUNTS 42 46 0 0 0
M  V30 BEGIN ATOM
M  V30 1 F 3.3301 1.0 0.0 0
M  V30 2 C 4.3301 0.9999 0.0 0
M  V30 3 F 4.3301 1.9999 0.0 0
M  V30 4 F 5.3301 0.9999 0.0 0
M  V30 5 C 4.3301 0.0 0.0 0
M  V30 6 C 3.4641 -0.5 0.0 0
M  V30 7 C 5.1961 -0.5 0.0 0
M  V30 8 C 3.4641 -1.5 0.0 0
M  V30 9 C 2.598 0.0 0.0 0 CFG=1
M  V30 10 C 5.1961 -1.5 0.0 0
M  V30 11 C 4.3301 -2.0 0.0 0
M  V30 12 N 1.732 -0.5 0.0 0
M  V30 13 C 2.598 1.0 0.0 0
M  V30 14 C 0.866 0.0 0.0 0
M  V30 15 O 0.866 1.0 0.0 0
M  V30 16 C 0.0 -0.5 0.0 0
M  V30 17 C 0.0 -1.4999 0.0 0
M  V30 18 C -0.866 0.0 0.0 0
M  V30 19 C -0.866 -1.9999 0.0 0
M  V30 20 C -1.732 -0.4999 0.0 0
M  V30 21 C -1.732 -1.4999 0.0 0
M  V30 22 C -1.0739 -2.9781 0.0 0
M  V30 23 N -2.4751 -2.1691 0.0 0
M  V30 24 C -2.0684 -3.0826 0.0 0
M  V30 25 C -0.4048 -3.7212 0.0 0
M  V30 26 C -3.4533 -1.9612 0.0 0
M  V30 27 C -2.5684 -3.9487 0.0 0
M  V30 28 C -4.1224 -2.7043 0.0 0
M  V30 29 C -5.1006 -2.4964 0.0 0
M  V30 30 C -3.8134 -3.6554 0.0 0
M  V30 31 C -5.7697 -3.2395 0.0 0
M  V30 32 C -4.4825 -4.3985 0.0 0
M  V30 33 C -5.4607 -4.1906 0.0 0
M  V30 34 C -6.1298 -4.9337 0.0 0
M  V30 35 C -7.108 -4.7258 0.0 0
M  V30 36 C -5.8208 -5.8848 0.0 0
M  V30 37 C -7.417 -3.7748 0.0 0
M  V30 38 C -7.7771 -5.469 0.0 0
M  V30 39 C -6.4899 -6.6279 0.0 0
M  V30 40 O -6.7478 -3.0316 0.0 0
M  V30 41 O -8.3951 -3.5669 0.0 0
M  V30 42 C -7.4681 -6.42 0.0 0
M  V30 END ATOM
M  V30 BEGIN BOND
M  V30 1 1 1 2
M  V30 2 1 2 3
M  V30 3 1 2 4
M  V30 4 1 2 5
M  V30 5 2 5 6
M  V30 6 1 5 7
M  V30 7 1 6 8
M  V30 8 1 6 9
M  V30 9 2 7 10
M  V30 10 2 8 11
M  V30 11 1 9 12
M  V30 12 1 9 13 CFG=1
M  V30 13 1 12 14
M  V30 14 2 14 15
M  V30 15 1 14 16
M  V30 16 2 16 17
M  V30 17 1 16 18
M  V30 18 1 17 19
M  V30 19 2 18 20
M  V30 20 2 19 21
M  V30 21 1 19 22
M  V30 22 1 21 23
M  V30 23 2 22 24
M  V30 24 1 22 25
M  V30 25 1 23 26
M  V30 26 1 24 27
M  V30 27 1 26 28
M  V30 28 2 28 29
M  V30 29 1 28 30
M  V30 30 1 29 31
M  V30 31 2 30 32
M  V30 32 2 31 33
M  V30 33 1 33 34
M  V30 34 2 34 35
M  V30 35 1 34 36
M  V30 36 1 35 37
M  V30 37 1 35 38
M  V30 38 2 36 39
M  V30 39 2 37 40
M  V30 40 1 37 41
M  V30 41 2 38 42
M  V30 42 1 10 11
M  V30 43 1 20 21
M  V30 44 1 23 24
M  V30 45 1 32 33
M  V30 46 1 39 42
M  V30 END BOND
M  V30 BEGIN COLLECTION
M  V30 MDLV30/STEABS ATOMS=(1 9)
M  V30 END COLLECTION
M  V30 END CTAB
M  END
>  <Molecule ChEMBL ID>
CHEMBL3699354

>  <Smiles>
Cc1c(C)n(Cc2ccc(-c3ccccc3C(=O)O)cc2)c2ccc(C(=O)N[C@@H](C)c3ccccc3C(F)(F)F)cc12

>  <IC50_nM>
22

>  <Assay Description>
Lanthascreen Competitive Binding Assay: The assay was performed according to manufacturer protocol. A mixture of nM GST-PPARG-LBD, 5 nM Tb-GST-antibody, 5 nM Fluormone Pan-PPAR Green, and serial dilutions of the experimental compound, beginning at 10 ׬M downwards, was added to wells of black 384-well low-volume plates (Greiner) to a total volume of 18 ׬L. All dilutions were made in TR-FRET assay buffer C. DMSO at 2% final concentration was used as a no-ligand control. Experiment was performed in triplicate, and incubated for 2 hours in the dark prior to assay read in Perkin Elmer ViewLux ultra HTS microplate reader. FRET signal was measured by excitation at 340 nm and emission at 520 nm for fluorescein and 490 nm for terbium. Fold change over DMSO was calculated using GraphPad Prism Software (La Jolla, Calif.) by calculating 520 nm/490 nm ratio. Graphs were plotted as fold change of FRET signal for compound treatment over DMSO-only control.

$$$$
CHEMBL3699388
Actelion Java MolfileCreator 2.0

  0  0  0  0  0  0              0 V3000
M  V30 BEGIN CTAB
M  V30 COUNTS 43 48 0 0 0
M  V30 BEGIN ATOM
M  V30 1 O 5.1961 -0.7499 0.0 0
M  V30 2 C 3.8971 0.0 0.0 0
M  V30 3 N 2.598 -0.7499 0.0 0
M  V30 4 C 3.8971 1.5 0.0 0
M  V30 5 C 1.299 0.0 0.0 0 CFG=2
M  V30 6 C 2.598 2.25 0.0 0
M  V30 7 C 5.1961 2.25 0.0 0
M  V30 8 C 0.0 -0.7499 0.0 0
M  V30 9 C 1.299 1.5 0.0 0
M  V30 10 C 2.598 3.75 0.0 0
M  V30 11 C 5.1961 3.75 0.0 0
M  V30 12 C 0.0 -2.2499 0.0 0
M  V30 13 C -1.299 0.0 0.0 0
M  V30 14 C 3.8971 4.5 0.0 0
M  V30 15 C 1.4833 4.7536 0.0 0
M  V30 16 C -1.299 -2.9999 0.0 0
M  V30 17 C -2.598 -0.7499 0.0 0
M  V30 18 N 3.5852 5.9672 0.0 0
M  V30 19 C 2.0934 6.124 0.0 0
M  V30 20 C 0.0161 4.4418 0.0 0
M  V30 21 C -2.598 -2.2499 0.0 0
M  V30 22 C -1.299 -4.4999 0.0 0
M  V30 23 C 4.5889 7.0819 0.0 0
M  V30 24 C 1.3434 7.423 0.0 0
M  V30 25 C 0.0 -5.2499 0.0 0
M  V30 26 C -2.598 -5.2499 0.0 0
M  V30 27 C 4.1254 8.5085 0.0 0
M  V30 28 C 5.1291 9.6232 0.0 0
M  V30 29 C 2.6581 8.8203 0.0 0
M  V30 30 C 4.6655 11.0498 0.0 0
M  V30 31 C 2.1946 10.2469 0.0 0
M  V30 32 C 3.1983 11.3616 0.0 0
M  V30 33 C 2.7348 12.7882 0.0 0
M  V30 34 C 3.7385 13.9029 0.0 0
M  V30 35 C 1.2676 13.1001 0.0 0
M  V30 36 C 5.2057 13.5911 0.0 0
M  V30 37 C 3.275 15.3295 0.0 0
M  V30 38 C 0.804 14.5267 0.0 0
M  V30 39 N 5.8158 12.2208 0.0 0
M  V30 40 N 6.3204 14.5948 0.0 0
M  V30 41 C 1.8077 15.6414 0.0 0
M  V30 42 N 7.3076 12.3776 0.0 0
M  V30 43 N 7.6195 13.8448 0.0 0
M  V30 END ATOM
M  V30 BEGIN BOND
M  V30 1 2 1 2
M  V30 2 1 2 3
M  V30 3 1 2 4
M  V30 4 1 3 5
M  V30 5 2 4 6
M  V30 6 1 4 7
M  V30 7 1 5 8
M  V30 8 1 5 9 CFG=3
M  V30 9 1 6 10
M  V30 10 2 7 11
M  V30 11 2 8 12
M  V30 12 1 8 13
M  V30 13 2 10 14
M  V30 14 1 10 15
M  V30 15 1 12 16
M  V30 16 2 13 17
M  V30 17 1 14 18
M  V30 18 2 15 19
M  V30 19 1 15 20
M  V30 20 2 16 21
M  V30 21 1 16 22
M  V30 22 1 18 23
M  V30 23 1 19 24
M  V30 24 1 22 25
M  V30 25 1 22 26
M  V30 26 1 23 27
M  V30 27 2 27 28
M  V30 28 1 27 29
M  V30 29 1 28 30
M  V30 30 2 29 31
M  V30 31 2 30 32
M  V30 32 1 32 33
M  V30 33 2 33 34
M  V30 34 1 33 35
M  V30 35 1 34 36
M  V30 36 1 34 37
M  V30 37 2 35 38
M  V30 38 1 36 39
M  V30 39 2 36 40
M  V30 40 2 37 41
M  V30 41 2 39 42
M  V30 42 1 40 43
M  V30 43 1 11 14
M  V30 44 1 17 21
M  V30 45 1 18 19
M  V30 46 1 31 32
M  V30 47 1 38 41
M  V30 48 1 42 43
M  V30 END BOND
M  V30 BEGIN COLLECTION
M  V30 MDLV30/STEABS ATOMS=(1 5)
M  V30 END COLLECTION
M  V30 END CTAB
M  END
>  <Molecule ChEMBL ID>
CHEMBL3699388

>  <Smiles>
Cc1c(C)n(Cc2ccc(-c3ccccc3-c3nn[nH]n3)cc2)c2ccc(C(=O)N[C@@H](C)c3cccc(C(C)C)c3)cc12

>  <IC50_nM>
22

>  <Assay Description>
Lanthascreen Competitive Binding Assay: The assay was performed according to manufacturer protocol. A mixture of nM GST-PPARG-LBD, 5 nM Tb-GST-antibody, 5 nM Fluormone Pan-PPAR Green, and serial dilutions of the experimental compound, beginning at 10 ׬M downwards, was added to wells of black 384-well low-volume plates (Greiner) to a total volume of 18 ׬L. All dilutions were made in TR-FRET assay buffer C. DMSO at 2% final concentration was used as a no-ligand control. Experiment was performed in triplicate, and incubated for 2 hours in the dark prior to assay read in Perkin Elmer ViewLux ultra HTS microplate reader. FRET signal was measured by excitation at 340 nm and emission at 520 nm for fluorescein and 490 nm for terbium. Fold change over DMSO was calculated using GraphPad Prism Software (La Jolla, Calif.) by calculating 520 nm/490 nm ratio. Graphs were plotted as fold change of FRET signal for compound treatment over DMSO-only control.

$$$$
CHEMBL517436
Actelion Java MolfileCreator 2.0

  0  0  0  0  0  0              0 V3000
M  V30 BEGIN CTAB
M  V30 COUNTS 36 39 0 0 0
M  V30 BEGIN ATOM
M  V30 1 Cl 4.3301 0.9999 0.0 0
M  V30 2 C 4.3301 0.0 0.0 0
M  V30 3 C 3.4641 -0.5 0.0 0
M  V30 4 C 5.1961 -0.5 0.0 0
M  V30 5 O 2.598 0.0 0.0 0
M  V30 6 C 3.4641 -1.5 0.0 0
M  V30 7 C 5.1961 -1.5 0.0 0
M  V30 8 C 1.732 -0.5 0.0 0 CFG=2
M  V30 9 C 4.3301 -2.0 0.0 0
M  V30 10 C 0.866 0.0 0.0 0
M  V30 11 C 1.732 -1.5 0.0 0
M  V30 12 C 4.3301 -3.0 0.0 0
M  V30 13 O 0.866 1.0 0.0 0
M  V30 14 O 0.0 -0.5 0.0 0
M  V30 15 N 5.1961 -3.5 0.0 0
M  V30 16 C 5.3006 -4.4945 0.0 0
M  V30 17 C 6.1096 -3.0932 0.0 0
M  V30 18 N 4.6315 -5.2376 0.0 0
M  V30 19 C 6.2788 -4.7024 0.0 0
M  V30 20 C 6.7788 -3.8364 0.0 0
M  V30 21 C 6.3176 -2.1151 0.0 0
M  V30 22 C 4.9405 -6.1887 0.0 0
M  V30 23 C 6.5878 -5.6534 0.0 0
M  V30 24 O 7.7733 -3.7318 0.0 0
M  V30 25 C 5.9187 -6.3966 0.0 0
M  V30 26 C 4.2714 -6.9318 0.0 0
M  V30 27 C 8.18 -2.8183 0.0 0
M  V30 28 F 5.0145 -7.6009 0.0 0
M  V30 29 F 3.6023 -7.675 0.0 0
M  V30 30 F 3.5282 -6.2627 0.0 0
M  V30 31 C 9.1746 -2.7138 0.0 0
M  V30 32 C 7.5923 -2.0093 0.0 0
M  V30 33 C 9.5813 -1.8002 0.0 0
M  V30 34 C 7.999 -1.0957 0.0 0
M  V30 35 C 8.9935 -0.9912 0.0 0
M  V30 36 Cl 9.4002 -0.0776 0.0 0
M  V30 END ATOM
M  V30 BEGIN BOND
M  V30 1 1 1 2
M  V30 2 2 2 3
M  V30 3 1 2 4
M  V30 4 1 3 5
M  V30 5 1 3 6
M  V30 6 2 4 7
M  V30 7 1 5 8
M  V30 8 2 6 9
M  V30 9 1 8 10
M  V30 10 1 8 11 CFG=1
M  V30 11 1 9 12
M  V30 12 2 10 13
M  V30 13 1 10 14
M  V30 14 1 12 15
M  V30 15 1 15 16
M  V30 16 1 15 17
M  V30 17 2 16 18
M  V30 18 1 16 19
M  V30 19 2 17 20
M  V30 20 1 17 21
M  V30 21 1 18 22
M  V30 22 2 19 23
M  V30 23 1 20 24
M  V30 24 2 22 25
M  V30 25 1 22 26
M  V30 26 1 24 27
M  V30 27 1 26 28
M  V30 28 1 26 29
M  V30 29 1 26 30
M  V30 30 2 27 31
M  V30 31 1 27 32
M  V30 32 1 31 33
M  V30 33 2 32 34
M  V30 34 2 33 35
M  V30 35 1 35 36
M  V30 36 1 7 9
M  V30 37 1 19 20
M  V30 38 1 23 25
M  V30 39 1 34 35
M  V30 END BOND
M  V30 BEGIN COLLECTION
M  V30 MDLV30/STEABS ATOMS=(1 8)
M  V30 END COLLECTION
M  V30 END CTAB
M  END
>  <Molecule ChEMBL ID>
CHEMBL517436

>  <Smiles>
Cc1c(Oc2ccc(Cl)cc2)c2ccc(C(F)(F)F)nc2n1Cc1ccc(Cl)c(O[C@@H](C)C(=O)O)c1

>  <IC50_nM>
22

>  <Assay Description>
Displacement of [3H]2AD-5075 from GST-tagged human PPARgamma receptor expressed in Escherichia coli BL21

$$$$
CHEMBL3699442
Actelion Java MolfileCreator 2.0

  0  0  0  0  0  0              0 V3000
M  V30 BEGIN CTAB
M  V30 COUNTS 40 45 0 0 0
M  V30 BEGIN ATOM
M  V30 1 O 9.4516 5.7369 0.0 0
M  V30 2 C 9.1426 4.7859 0.0 0
M  V30 3 O 8.1645 4.578 0.0 0
M  V30 4 C 9.8118 4.0427 0.0 0
M  V30 5 C 9.5027 3.0917 0.0 0
M  V30 6 C 10.7899 4.2506 0.0 0
M  V30 7 C 8.5246 2.8838 0.0 0
M  V30 8 C 10.1719 2.3485 0.0 0
M  V30 9 C 11.459 3.5075 0.0 0
M  V30 10 C 7.8555 3.6269 0.0 0
M  V30 11 C 8.2156 1.9327 0.0 0
M  V30 12 C 11.15 2.5564 0.0 0
M  V30 13 C 6.8773 3.419 0.0 0
M  V30 14 C 7.2374 1.7248 0.0 0
M  V30 15 C 6.5683 2.4679 0.0 0
M  V30 16 C 5.5902 2.26 0.0 0
M  V30 17 N 5.2811 1.309 0.0 0
M  V30 18 C 4.3301 1.0 0.0 0
M  V30 19 C 5.8689 0.5 0.0 0
M  V30 20 C 4.3301 0.0 0.0 0
M  V30 21 C 3.4641 1.5 0.0 0
M  V30 22 C 5.2811 -0.309 0.0 0
M  V30 23 C 6.8689 0.5 0.0 0
M  V30 24 C 3.4641 -0.4999 0.0 0
M  V30 25 C 2.598 0.9999 0.0 0
M  V30 26 C 5.5902 -1.26 0.0 0
M  V30 27 C 2.598 0.0 0.0 0
M  V30 28 C 1.732 -0.5 0.0 0
M  V30 29 O 1.732 -1.5 0.0 0
M  V30 30 N 0.866 0.0 0.0 0
M  V30 31 C 0.0 -0.5 0.0 0 CFG=2
M  V30 32 C -0.866 0.0 0.0 0
M  V30 33 C 0.0 -1.4999 0.0 0
M  V30 34 O -1.732 -0.4999 0.0 0
M  V30 35 C -0.866 -1.9999 0.0 0
M  V30 36 C -1.732 -1.4999 0.0 0
M  V30 37 C -0.866 -2.9999 0.0 0
M  V30 38 C -2.598 -1.9999 0.0 0
M  V30 39 C -1.732 -3.4999 0.0 0
M  V30 40 C -2.598 -2.9999 0.0 0
M  V30 END ATOM
M  V30 BEGIN BOND
M  V30 1 2 1 2
M  V30 2 1 2 3
M  V30 3 1 2 4
M  V30 4 2 4 5
M  V30 5 1 4 6
M  V30 6 1 5 7
M  V30 7 1 5 8
M  V30 8 2 6 9
M  V30 9 2 7 10
M  V30 10 1 7 11
M  V30 11 2 8 12
M  V30 12 1 10 13
M  V30 13 2 11 14
M  V30 14 2 13 15
M  V30 15 1 15 16
M  V30 16 1 16 17
M  V30 17 1 17 18
M  V30 18 1 17 19
M  V30 19 2 18 20
M  V30 20 1 18 21
M  V30 21 2 19 22
M  V30 22 1 19 23
M  V30 23 1 20 24
M  V30 24 2 21 25
M  V30 25 1 22 26
M  V30 26 2 24 27
M  V30 27 1 27 28
M  V30 28 2 28 29
M  V30 29 1 28 30
M  V30 30 1 31 30 CFG=1
M  V30 31 1 31 32
M  V30 32 1 31 33
M  V30 33 1 32 34
M  V30 34 1 33 35
M  V30 35 1 34 36
M  V30 36 1 35 37
M  V30 37 1 36 38
M  V30 38 2 37 39
M  V30 39 2 38 40
M  V30 40 1 9 12
M  V30 41 1 14 15
M  V30 42 1 20 22
M  V30 43 1 25 27
M  V30 44 2 35 36
M  V30 45 1 39 40
M  V30 END BOND
M  V30 BEGIN COLLECTION
M  V30 MDLV30/STERAC1 ATOMS=(1 31)
M  V30 END COLLECTION
M  V30 END CTAB
M  END
>  <Molecule ChEMBL ID>
CHEMBL3699442

>  <Smiles>
Cc1c(C)n(Cc2ccc(-c3ccccc3C(=O)O)cc2)c2ccc(C(=O)NC3COc4ccccc4C3)cc12

>  <IC50_nM>
22

>  <Assay Description>
Lanthascreen Competitive Binding Assay: The assay was performed according to manufacturer protocol. A mixture of nM GST-PPARG-LBD, 5 nM Tb-GST-antibody, 5 nM Fluormone Pan-PPAR Green, and serial dilutions of the experimental compound, beginning at 10 ׬M downwards, was added to wells of black 384-well low-volume plates (Greiner) to a total volume of 18 ׬L. All dilutions were made in TR-FRET assay buffer C. DMSO at 2% final concentration was used as a no-ligand control. Experiment was performed in triplicate, and incubated for 2 hours in the dark prior to assay read in Perkin Elmer ViewLux ultra HTS microplate reader. FRET signal was measured by excitation at 340 nm and emission at 520 nm for fluorescein and 490 nm for terbium. Fold change over DMSO was calculated using GraphPad Prism Software (La Jolla, Calif.) by calculating 520 nm/490 nm ratio. Graphs were plotted as fold change of FRET signal for compound treatment over DMSO-only control.

$$$$
CHEMBL208472
Actelion Java MolfileCreator 2.0

  0  0  0  0  0  0              0 V3000
M  V30 BEGIN CTAB
M  V30 COUNTS 35 38 0 0 0
M  V30 BEGIN ATOM
M  V30 1 S 2.598 -0.75 0.0 0
M  V30 2 O 1.848 -2.049 0.0 0
M  V30 3 O 3.348 -2.049 0.0 0
M  V30 4 N 1.299 0.0 0.0 0
M  V30 5 C 3.8971 0.0 0.0 0
M  V30 6 C 0.0 -0.75 0.0 0
M  V30 7 C 5.1961 -0.75 0.0 0
M  V30 8 C 3.8971 1.5 0.0 0
M  V30 9 N -1.3703 -0.1398 0.0 0
M  V30 10 C -0.1567 -2.2417 0.0 0
M  V30 11 C 6.4951 0.0 0.0 0
M  V30 12 C 5.1961 2.25 0.0 0
M  V30 13 N -2.374 -1.2546 0.0 0
M  V30 14 C -1.6821 1.3273 0.0 0
M  V30 15 C -1.624 -2.5536 0.0 0
M  V30 16 C 6.4951 1.5 0.0 0
M  V30 17 C 7.7942 -0.75 0.0 0
M  V30 18 C 5.1961 3.75 0.0 0
M  V30 19 C -0.5674 2.331 0.0 0
M  V30 20 C -3.1087 1.7908 0.0 0
M  V30 21 C -2.2341 -3.9239 0.0 0
M  V30 22 F 8.5442 0.549 0.0 0
M  V30 23 F 9.0932 -1.5 0.0 0
M  V30 24 F 7.0442 -2.049 0.0 0
M  V30 25 F 3.6961 3.75 0.0 0
M  V30 26 F 5.1961 5.25 0.0 0
M  V30 27 F 6.6961 3.75 0.0 0
M  V30 28 C -0.8793 3.7982 0.0 0
M  V30 29 C -3.4206 3.258 0.0 0
M  V30 30 S -3.7013 -4.2358 0.0 0
M  V30 31 C -1.4841 -5.223 0.0 0
M  V30 32 C -2.3059 4.2617 0.0 0
M  V30 33 C -3.8581 -5.7276 0.0 0
M  V30 34 C -2.4878 -6.3377 0.0 0
M  V30 35 F -2.6177 5.7289 0.0 0
M  V30 END ATOM
M  V30 BEGIN BOND
M  V30 1 2 1 2
M  V30 2 2 1 3
M  V30 3 1 1 4
M  V30 4 1 1 5
M  V30 5 1 4 6
M  V30 6 2 5 7
M  V30 7 1 5 8
M  V30 8 1 6 9
M  V30 9 2 6 10
M  V30 10 1 7 11
M  V30 11 2 8 12
M  V30 12 1 9 13
M  V30 13 1 9 14
M  V30 14 1 10 15
M  V30 15 2 11 16
M  V30 16 1 11 17
M  V30 17 1 12 18
M  V30 18 2 14 19
M  V30 19 1 14 20
M  V30 20 1 15 21
M  V30 21 1 17 22
M  V30 22 1 17 23
M  V30 23 1 17 24
M  V30 24 1 18 25
M  V30 25 1 18 26
M  V30 26 1 18 27
M  V30 27 1 19 28
M  V30 28 2 20 29
M  V30 29 1 21 30
M  V30 30 2 21 31
M  V30 31 2 28 32
M  V30 32 1 30 33
M  V30 33 1 31 34
M  V30 34 1 32 35
M  V30 35 1 12 16
M  V30 36 2 13 15
M  V30 37 1 29 32
M  V30 38 2 33 34
M  V30 END BOND
M  V30 END CTAB
M  END
>  <Molecule ChEMBL ID>
CHEMBL208472

>  <Smiles>
O=S(=O)(Nc1cc(-c2cccs2)nn1-c1ccc(F)cc1)c1cc(C(F)(F)F)cc(C(F)(F)F)c1

>  <IC50_nM>
22.7

>  <Assay Description>
Displacement of [3H]rosiglitazone from PPARgamma by SPA

$$$$
CHEMBL182100
Actelion Java MolfileCreator 2.0

  0  0  0  0  0  0              0 V3000
M  V30 BEGIN CTAB
M  V30 COUNTS 38 41 0 0 0
M  V30 BEGIN ATOM
M  V30 1 F 7.7798 -2.429 0.0 0
M  V30 2 C 7.0367 -1.7599 0.0 0
M  V30 3 F 6.3676 -2.503 0.0 0
M  V30 4 F 6.2936 -1.0907 0.0 0
M  V30 5 O 7.7058 -1.0167 0.0 0
M  V30 6 C 7.3968 -0.0657 0.0 0
M  V30 7 C 6.4187 0.1422 0.0 0
M  V30 8 C 8.0659 0.6774 0.0 0
M  V30 9 C 6.1096 1.0932 0.0 0
M  V30 10 C 7.7569 1.6284 0.0 0
M  V30 11 C 6.7788 1.8364 0.0 0
M  V30 12 C 5.1961 1.4999 0.0 0
M  V30 13 N 6.2788 2.7024 0.0 0
M  V30 14 C 5.3006 2.4945 0.0 0
M  V30 15 C 4.3301 0.9999 0.0 0
M  V30 16 C 6.6855 3.6159 0.0 0
M  V30 17 C 4.5575 3.1636 0.0 0
M  V30 18 C 4.3301 0.0 0.0 0
M  V30 19 O 7.68 3.7205 0.0 0
M  V30 20 C 6.0977 4.4249 0.0 0
M  V30 21 C 3.4641 -0.5 0.0 0
M  V30 22 C 5.1961 -0.5 0.0 0
M  V30 23 C 6.5045 5.3385 0.0 0
M  V30 24 C 5.1032 4.3204 0.0 0
M  V30 25 O 2.598 0.0 0.0 0
M  V30 26 C 3.4641 -1.5 0.0 0
M  V30 27 C 5.1961 -1.5 0.0 0
M  V30 28 C 5.9167 6.1475 0.0 0
M  V30 29 C 4.5154 5.1294 0.0 0
M  V30 30 C 1.732 -0.5 0.0 0 CFG=1
M  V30 31 C 4.3301 -2.0 0.0 0
M  V30 32 C 4.9222 6.043 0.0 0
M  V30 33 C 0.866 0.0 0.0 0
M  V30 34 C 1.732 -1.5 0.0 0
M  V30 35 O 4.3344 6.852 0.0 0
M  V30 36 O 0.866 1.0 0.0 0
M  V30 37 O 0.0 -0.5 0.0 0
M  V30 38 C 3.3399 6.7475 0.0 0
M  V30 END ATOM
M  V30 BEGIN BOND
M  V30 1 1 1 2
M  V30 2 1 2 3
M  V30 3 1 2 4
M  V30 4 1 2 5
M  V30 5 1 5 6
M  V30 6 2 6 7
M  V30 7 1 6 8
M  V30 8 1 7 9
M  V30 9 2 8 10
M  V30 10 2 9 11
M  V30 11 1 9 12
M  V30 12 1 11 13
M  V30 13 2 12 14
M  V30 14 1 12 15
M  V30 15 1 13 16
M  V30 16 1 14 17
M  V30 17 1 15 18
M  V30 18 2 16 19
M  V30 19 1 16 20
M  V30 20 2 18 21
M  V30 21 1 18 22
M  V30 22 2 20 23
M  V30 23 1 20 24
M  V30 24 1 21 25
M  V30 25 1 21 26
M  V30 26 2 22 27
M  V30 27 1 23 28
M  V30 28 2 24 29
M  V30 29 1 25 30
M  V30 30 2 26 31
M  V30 31 2 28 32
M  V30 32 1 30 33
M  V30 33 1 30 34 CFG=3
M  V30 34 1 32 35
M  V30 35 2 33 36
M  V30 36 1 33 37
M  V30 37 1 35 38
M  V30 38 1 10 11
M  V30 39 1 13 14
M  V30 40 1 27 31
M  V30 41 1 29 32
M  V30 END BOND
M  V30 BEGIN COLLECTION
M  V30 MDLV30/STEABS ATOMS=(1 30)
M  V30 END COLLECTION
M  V30 END CTAB
M  END
>  <Molecule ChEMBL ID>
CHEMBL182100

>  <Smiles>
COc1ccc(C(=O)n2c(C)c(Cc3ccccc3O[C@H](C)C(=O)O)c3cc(OC(F)(F)F)ccc32)cc1

>  <IC50_nM>
23

>  <Assay Description>
In vitro inhibition of human Peroxisome proliferator activated receptor gamma

$$$$
CHEMBL461379
Actelion Java MolfileCreator 2.0

  0  0  0  0  0  0              0 V3000
M  V30 BEGIN CTAB
M  V30 COUNTS 33 36 0 0 0
M  V30 BEGIN ATOM
M  V30 1 Cl 6.0664 -5.852 0.0 0
M  V30 2 C 6.6542 -5.043 0.0 0
M  V30 3 C 7.6487 -5.1475 0.0 0
M  V30 4 C 6.2475 -4.1294 0.0 0
M  V30 5 C 8.2365 -4.3385 0.0 0
M  V30 6 C 6.8353 -3.3204 0.0 0
M  V30 7 C 7.8298 -3.4249 0.0 0
M  V30 8 O 8.4176 -2.6159 0.0 0
M  V30 9 C 8.0108 -1.7024 0.0 0
M  V30 10 C 8.5108 -0.8364 0.0 0
M  V30 11 C 7.0327 -1.4945 0.0 0
M  V30 12 C 7.8417 -0.0932 0.0 0
M  V30 13 C 9.489 -0.6284 0.0 0
M  V30 14 N 6.9282 -0.5 0.0 0
M  V30 15 C 6.2895 -2.1636 0.0 0
M  V30 16 N 8.1507 0.8577 0.0 0
M  V30 17 C 9.798 0.3225 0.0 0
M  V30 18 C 6.0621 0.0 0.0 0
M  V30 19 C 9.1289 1.0657 0.0 0
M  V30 20 C 5.1961 -0.5 0.0 0
M  V30 21 F 9.4379 2.0167 0.0 0
M  V30 22 C 4.3301 0.0 0.0 0
M  V30 23 C 5.1961 -1.4999 0.0 0
M  V30 24 C 3.4641 -0.5 0.0 0
M  V30 25 C 4.3301 -1.9999 0.0 0
M  V30 26 O 2.598 0.0 0.0 0
M  V30 27 C 3.4641 -1.4999 0.0 0
M  V30 28 C 1.732 -0.5 0.0 0 CFG=2
M  V30 29 F 2.598 -1.9999 0.0 0
M  V30 30 C 0.866 0.0 0.0 0
M  V30 31 C 1.732 -1.5 0.0 0
M  V30 32 O 0.866 1.0 0.0 0
M  V30 33 O 0.0 -0.5 0.0 0
M  V30 END ATOM
M  V30 BEGIN BOND
M  V30 1 1 1 2
M  V30 2 2 2 3
M  V30 3 1 2 4
M  V30 4 1 3 5
M  V30 5 2 4 6
M  V30 6 2 5 7
M  V30 7 1 7 8
M  V30 8 1 8 9
M  V30 9 1 9 10
M  V30 10 2 9 11
M  V30 11 2 10 12
M  V30 12 1 10 13
M  V30 13 1 11 14
M  V30 14 1 11 15
M  V30 15 1 12 16
M  V30 16 2 13 17
M  V30 17 1 14 18
M  V30 18 2 16 19
M  V30 19 1 18 20
M  V30 20 1 19 21
M  V30 21 2 20 22
M  V30 22 1 20 23
M  V30 23 1 22 24
M  V30 24 2 23 25
M  V30 25 1 24 26
M  V30 26 2 24 27
M  V30 27 1 26 28
M  V30 28 1 27 29
M  V30 29 1 28 30
M  V30 30 1 28 31 CFG=1
M  V30 31 2 30 32
M  V30 32 1 30 33
M  V30 33 1 6 7
M  V30 34 1 12 14
M  V30 35 1 17 19
M  V30 36 1 25 27
M  V30 END BOND
M  V30 BEGIN COLLECTION
M  V30 MDLV30/STEABS ATOMS=(1 28)
M  V30 END COLLECTION
M  V30 END CTAB
M  END
>  <Molecule ChEMBL ID>
CHEMBL461379

>  <Smiles>
Cc1c(Oc2ccc(Cl)cc2)c2ccc(F)nc2n1Cc1ccc(F)c(O[C@@H](C)C(=O)O)c1

>  <IC50_nM>
23

>  <Assay Description>
Displacement of [3H]2AD-5075 from GST-tagged human PPARgamma receptor expressed in Escherichia coli BL21

$$$$
CHEMBL3695768
Actelion Java MolfileCreator 2.0

  0  0  0  0  0  0              0 V3000
M  V30 BEGIN CTAB
M  V30 COUNTS 40 44 0 0 0
M  V30 BEGIN ATOM
M  V30 1 O 11.8592 -3.5669 0.0 0
M  V30 2 C 10.8811 -3.7748 0.0 0
M  V30 3 O 10.212 -3.0316 0.0 0
M  V30 4 C 10.5721 -4.7258 0.0 0
M  V30 5 C 9.5939 -4.9337 0.0 0
M  V30 6 C 11.2412 -5.469 0.0 0
M  V30 7 C 8.9248 -4.1906 0.0 0
M  V30 8 C 9.2849 -5.8848 0.0 0
M  V30 9 C 10.9322 -6.42 0.0 0
M  V30 10 C 9.2338 -3.2395 0.0 0
M  V30 11 C 7.9466 -4.3985 0.0 0
M  V30 12 C 9.954 -6.6279 0.0 0
M  V30 13 C 8.5647 -2.4964 0.0 0
M  V30 14 C 7.2775 -3.6554 0.0 0
M  V30 15 C 7.5865 -2.7043 0.0 0
M  V30 16 C 6.9174 -1.9612 0.0 0
M  V30 17 N 5.9392 -2.1691 0.0 0
M  V30 18 C 5.1961 -1.4999 0.0 0
M  V30 19 C 5.5325 -3.0826 0.0 0
M  V30 20 C 4.3301 -1.9999 0.0 0
M  V30 21 C 5.1961 -0.4999 0.0 0
M  V30 22 C 4.538 -2.9781 0.0 0
M  V30 23 C 6.0325 -3.9487 0.0 0
M  V30 24 C 3.4641 -1.5 0.0 0
M  V30 25 C 4.3301 0.0 0.0 0
M  V30 26 C 3.8689 -3.7212 0.0 0
M  V30 27 C 3.4641 -0.5 0.0 0
M  V30 28 C 2.598 0.0 0.0 0
M  V30 29 O 2.598 1.0 0.0 0
M  V30 30 N 1.732 -0.5 0.0 0
M  V30 31 C 0.866 0.0 0.0 0
M  V30 32 C 0.0 -0.5 0.0 0
M  V30 33 C -0.866 0.0 0.0 0
M  V30 34 C 0.0 -1.4999 0.0 0
M  V30 35 C -1.732 -0.4999 0.0 0
M  V30 36 C -0.866 -1.9999 0.0 0
M  V30 37 C -1.732 -1.4999 0.0 0
M  V30 38 C -2.598 -1.9999 0.0 0
M  V30 39 C -3.4641 -1.4999 0.0 0
M  V30 40 C -2.598 -2.9999 0.0 0
M  V30 END ATOM
M  V30 BEGIN BOND
M  V30 1 2 1 2
M  V30 2 1 2 3
M  V30 3 1 2 4
M  V30 4 2 4 5
M  V30 5 1 4 6
M  V30 6 1 5 7
M  V30 7 1 5 8
M  V30 8 2 6 9
M  V30 9 2 7 10
M  V30 10 1 7 11
M  V30 11 2 8 12
M  V30 12 1 10 13
M  V30 13 2 11 14
M  V30 14 2 13 15
M  V30 15 1 15 16
M  V30 16 1 16 17
M  V30 17 1 17 18
M  V30 18 1 17 19
M  V30 19 2 18 20
M  V30 20 1 18 21
M  V30 21 2 19 22
M  V30 22 1 19 23
M  V30 23 1 20 24
M  V30 24 2 21 25
M  V30 25 1 22 26
M  V30 26 2 24 27
M  V30 27 1 27 28
M  V30 28 2 28 29
M  V30 29 1 28 30
M  V30 30 1 30 31
M  V30 31 1 31 32
M  V30 32 2 32 33
M  V30 33 1 32 34
M  V30 34 1 33 35
M  V30 35 2 34 36
M  V30 36 2 35 37
M  V30 37 1 37 38
M  V30 38 1 38 39
M  V30 39 1 38 40
M  V30 40 1 9 12
M  V30 41 1 14 15
M  V30 42 1 20 22
M  V30 43 1 25 27
M  V30 44 1 36 37
M  V30 END BOND
M  V30 END CTAB
M  END
>  <Molecule ChEMBL ID>
CHEMBL3695768

>  <Smiles>
Cc1c(C)n(Cc2ccc(-c3ccccc3C(=O)O)cc2)c2ccc(C(=O)NCc3ccc(C(C)C)cc3)cc12

>  <IC50_nM>
23

>  <Assay Description>
Lanthascreen Competitive Binding Assay: The assay was performed according to manufacturer protocol. A mixture of nM GST-PPARG-LBD, 5 nM Tb-GST-antibody, 5 nM Fluormone Pan-PPAR Green, and serial dilutions of the experimental compound, beginning at 10 ׬M downwards, was added to wells of black 384-well low-volume plates (Greiner) to a total volume of 18 ׬L. All dilutions were made in TR-FRET assay buffer C. DMSO at 2% final concentration was used as a no-ligand control. Experiment was performed in triplicate, and incubated for 2 hours in the dark prior to assay read in Perkin Elmer ViewLux ultra HTS microplate reader. FRET signal was measured by excitation at 340 nm and emission at 520 nm for fluorescein and 490 nm for terbium. Fold change over DMSO was calculated using GraphPad Prism Software (La Jolla, Calif.) by calculating 520 nm/490 nm ratio. Graphs were plotted as fold change of FRET signal for compound treatment over DMSO-only control.

$$$$
CHEMBL1933841
Actelion Java MolfileCreator 2.0

  0  0  0  0  0  0              0 V3000
M  V30 BEGIN CTAB
M  V30 COUNTS 34 35 0 0 0
M  V30 BEGIN ATOM
M  V30 1 Cl 14.8856 -4.1725 0.0 0
M  V30 2 C 13.7709 -5.1762 0.0 0
M  V30 3 C 12.3443 -4.7127 0.0 0
M  V30 4 C 14.0827 -6.6434 0.0 0
M  V30 5 C 11.2296 -5.7164 0.0 0
M  V30 6 C 12.0324 -3.2454 0.0 0
M  V30 7 C 12.968 -7.6471 0.0 0
M  V30 8 C 11.5414 -7.1836 0.0 0
M  V30 9 N 13.1471 -2.2417 0.0 0
M  V30 10 C 13.2799 -9.1143 0.0 0
M  V30 11 N 14.6144 -2.5536 0.0 0
M  V30 12 C 12.9903 -0.75 0.0 0
M  V30 13 F 14.7471 -8.8025 0.0 0
M  V30 14 F 13.5918 -10.5815 0.0 0
M  V30 15 F 11.8127 -9.4262 0.0 0
M  V30 16 C 15.3644 -1.2546 0.0 0
M  V30 17 C 14.3607 -0.1398 0.0 0
M  V30 18 C 11.6913 0.0 0.0 0
M  V30 19 O 16.8561 -1.0978 0.0 0
M  V30 20 C 11.6913 1.5 0.0 0
M  V30 21 C 17.7378 -2.3113 0.0 0
M  V30 22 C 10.3923 2.25 0.0 0
M  V30 23 C 17.1277 -3.6816 0.0 0
M  V30 24 C 19.2296 -2.1545 0.0 0
M  V30 25 O 9.0932 1.5 0.0 0
M  V30 26 N 10.3923 3.75 0.0 0
M  V30 27 S 9.0932 4.5 0.0 0
M  V30 28 O 8.3433 3.2009 0.0 0
M  V30 29 O 7.5933 4.5 0.0 0
M  V30 30 C 9.0932 6.0 0.0 0
M  V30 31 C 7.7942 6.75 0.0 0
M  V30 32 C 7.7942 8.25 0.0 0
M  V30 33 C 6.4951 9.0 0.0 0
M  V30 34 C 6.4951 10.5 0.0 0
M  V30 END ATOM
M  V30 BEGIN BOND
M  V30 1 1 1 2
M  V30 2 2 2 3
M  V30 3 1 2 4
M  V30 4 1 3 5
M  V30 5 1 3 6
M  V30 6 2 4 7
M  V30 7 2 5 8
M  V30 8 1 6 9
M  V30 9 1 7 10
M  V30 10 1 9 11
M  V30 11 1 9 12
M  V30 12 1 10 13
M  V30 13 1 10 14
M  V30 14 1 10 15
M  V30 15 2 11 16
M  V30 16 2 12 17
M  V30 17 1 12 18
M  V30 18 1 16 19
M  V30 19 2 18 20
M  V30 20 1 19 21
M  V30 21 1 20 22
M  V30 22 1 21 23
M  V30 23 1 21 24
M  V30 24 2 22 25
M  V30 25 1 22 26
M  V30 26 1 26 27
M  V30 27 2 27 28
M  V30 28 2 27 29
M  V30 29 1 27 30
M  V30 30 1 30 31
M  V30 31 1 31 32
M  V30 32 1 32 33
M  V30 33 1 33 34
M  V30 34 1 7 8
M  V30 35 1 16 17
M  V30 END BOND
M  V30 END CTAB
M  END
>  <Molecule ChEMBL ID>
CHEMBL1933841

>  <Smiles>
CCCCCS(=O)(=O)NC(=O)/C=C/c1cc(OC(C)C)nn1Cc1ccc(C(F)(F)F)cc1Cl

>  <IC50_nM>
23

>  <Assay Description>
Displacement of [3H]-AD-5061 from human GST-tagged PPARgamma

$$$$
CHEMBL484137
Actelion Java MolfileCreator 2.0

  0  0  0  0  0  0              0 V3000
M  V30 BEGIN CTAB
M  V30 COUNTS 35 38 0 0 0
M  V30 BEGIN ATOM
M  V30 1 S 4.1222 -2.9781 0.0 0
M  V30 2 C 4.3301 -2.0 0.0 0
M  V30 3 C 3.1276 -3.0826 0.0 0
M  V30 4 C 5.1961 -1.4999 0.0 0
M  V30 5 C 3.4641 -1.5 0.0 0
M  V30 6 C 2.7209 -2.1691 0.0 0
M  V30 7 C 5.1961 -0.4999 0.0 0
M  V30 8 C 6.0621 -1.9999 0.0 0
M  V30 9 C 3.4641 -0.5 0.0 0
M  V30 10 C 4.3301 0.0 0.0 0
M  V30 11 C 6.9282 -1.5 0.0 0 CFG=2
M  V30 12 O 2.598 0.0 0.0 0
M  V30 13 O 6.9282 -0.5 0.0 0
M  V30 14 C 7.7942 -2.0 0.0 0
M  V30 15 C 1.732 -0.5 0.0 0
M  V30 16 C 6.0621 0.0 0.0 0
M  V30 17 O 7.7942 -3.0 0.0 0
M  V30 18 O 8.6602 -1.5 0.0 0
M  V30 19 C 0.866 0.0 0.0 0
M  V30 20 C 0.0 -0.5 0.0 0
M  V30 21 N -0.9135 -0.0932 0.0 0
M  V30 22 C -0.1045 -1.4945 0.0 0
M  V30 23 C -1.5826 -0.8364 0.0 0
M  V30 24 O -1.0826 -1.7024 0.0 0
M  V30 25 C 0.6386 -2.1636 0.0 0
M  V30 26 C -2.5771 -0.7318 0.0 0
M  V30 27 C -2.9839 0.1816 0.0 0
M  V30 28 C -3.1649 -1.5408 0.0 0
M  V30 29 C -3.9784 0.2861 0.0 0
M  V30 30 C -4.1595 -1.4363 0.0 0
M  V30 31 C -4.5662 -0.5228 0.0 0
M  V30 32 C -5.5607 -0.4182 0.0 0
M  V30 33 F -5.6652 -1.4128 0.0 0
M  V30 34 F -6.5552 -0.3137 0.0 0
M  V30 35 F -5.4562 0.5762 0.0 0
M  V30 END ATOM
M  V30 BEGIN BOND
M  V30 1 1 1 2
M  V30 2 1 1 3
M  V30 3 2 2 4
M  V30 4 1 2 5
M  V30 5 2 3 6
M  V30 6 1 4 7
M  V30 7 1 4 8
M  V30 8 2 5 9
M  V30 9 2 7 10
M  V30 10 1 8 11
M  V30 11 1 9 12
M  V30 12 1 11 13 CFG=3
M  V30 13 1 11 14
M  V30 14 1 12 15
M  V30 15 1 13 16
M  V30 16 2 14 17
M  V30 17 1 14 18
M  V30 18 1 15 19
M  V30 19 1 19 20
M  V30 20 1 20 21
M  V30 21 2 20 22
M  V30 22 2 21 23
M  V30 23 1 22 24
M  V30 24 1 22 25
M  V30 25 1 23 26
M  V30 26 2 26 27
M  V30 27 1 26 28
M  V30 28 1 27 29
M  V30 29 2 28 30
M  V30 30 2 29 31
M  V30 31 1 31 32
M  V30 32 1 32 33
M  V30 33 1 32 34
M  V30 34 1 32 35
M  V30 35 1 5 6
M  V30 36 1 9 10
M  V30 37 1 23 24
M  V30 38 1 30 31
M  V30 END BOND
M  V30 BEGIN COLLECTION
M  V30 MDLV30/STEABS ATOMS=(1 11)
M  V30 END COLLECTION
M  V30 END CTAB
M  END
>  <Molecule ChEMBL ID>
CHEMBL484137

>  <Smiles>
CO[C@@H](Cc1ccc(OCCc2nc(-c3ccc(C(F)(F)F)cc3)oc2C)c2ccsc12)C(=O)O

>  <IC50_nM>
23

>  <Assay Description>
Displacement of radio labeled 2(S)-(2-benzoyl-phenylamino)-3-{4-[1,1-ditritio-2-(5-methyl-2-phenyl-oxazol-4-yl)-ethoxy]-phenyl}-propionic acid from GST-fused human PPARgamma expressed in Escherichia coli BL21 cells by scintillation proximity assay

$$$$
CHEMBL77502
Actelion Java MolfileCreator 2.0

  0  0  0  0  0  0              0 V3000
M  V30 BEGIN CTAB
M  V30 COUNTS 33 36 0 0 0
M  V30 BEGIN ATOM
M  V30 1 S 5.9316 -2.8238 0.0 0
M  V30 2 C 4.9535 -2.6159 0.0 0
M  V30 3 C 6.0361 -3.8184 0.0 0
M  V30 4 C 4.5467 -1.7024 0.0 0
M  V30 5 C 4.4535 -3.482 0.0 0
M  V30 6 C 5.1226 -4.2251 0.0 0
M  V30 7 O 5.0467 -0.8364 0.0 0
M  V30 8 N 3.5686 -1.4945 0.0 0
M  V30 9 C 4.3776 -0.0932 0.0 0
M  V30 10 C 3.4641 -0.5 0.0 0
M  V30 11 C 4.5855 0.8848 0.0 0
M  V30 12 C 2.598 0.0 0.0 0
M  V30 13 C 1.732 -0.5 0.0 0
M  V30 14 O 0.866 0.0 0.0 0
M  V30 15 C 0.0 -0.5 0.0 0
M  V30 16 C -0.866 0.0 0.0 0
M  V30 17 C 0.0 -1.4999 0.0 0
M  V30 18 C -1.732 -0.4999 0.0 0
M  V30 19 C -0.866 -1.9999 0.0 0
M  V30 20 C -1.732 -1.4999 0.0 0
M  V30 21 C -2.598 -1.9999 0.0 0
M  V30 22 C -2.598 -2.9999 0.0 0 CFG=2
M  V30 23 O -1.732 -3.4999 0.0 0
M  V30 24 C -3.4641 -3.4999 0.0 0
M  V30 25 C -1.732 -2.4999 0.0 0
M  V30 26 C -1.732 -4.4999 0.0 0
M  V30 27 O -4.3301 -2.9999 0.0 0
M  V30 28 O -3.4641 -4.4999 0.0 0
M  V30 29 C -2.598 -4.9999 0.0 0
M  V30 30 C -0.866 -5.0 0.0 0
M  V30 31 C -2.598 -5.9999 0.0 0
M  V30 32 C -0.866 -6.0 0.0 0
M  V30 33 C -1.732 -6.4999 0.0 0
M  V30 END ATOM
M  V30 BEGIN BOND
M  V30 1 1 1 2
M  V30 2 1 1 3
M  V30 3 1 2 4
M  V30 4 2 2 5
M  V30 5 2 3 6
M  V30 6 1 4 7
M  V30 7 2 4 8
M  V30 8 1 7 9
M  V30 9 1 8 10
M  V30 10 1 9 11
M  V30 11 1 10 12
M  V30 12 1 12 13
M  V30 13 1 13 14
M  V30 14 1 14 15
M  V30 15 2 15 16
M  V30 16 1 15 17
M  V30 17 1 16 18
M  V30 18 2 17 19
M  V30 19 2 18 20
M  V30 20 1 20 21
M  V30 21 1 21 22
M  V30 22 1 22 23
M  V30 23 1 22 24
M  V30 24 1 22 25 CFG=1
M  V30 25 1 23 26
M  V30 26 2 24 27
M  V30 27 1 24 28
M  V30 28 2 26 29
M  V30 29 1 26 30
M  V30 30 1 29 31
M  V30 31 2 30 32
M  V30 32 2 31 33
M  V30 33 1 5 6
M  V30 34 2 9 10
M  V30 35 1 19 20
M  V30 36 1 32 33
M  V30 END BOND
M  V30 BEGIN COLLECTION
M  V30 MDLV30/STEABS ATOMS=(1 22)
M  V30 END COLLECTION
M  V30 END CTAB
M  END
>  <Molecule ChEMBL ID>
CHEMBL77502

>  <Smiles>
Cc1oc(-c2cccs2)nc1CCOc1ccc(C[C@](C)(Oc2ccccc2)C(=O)O)cc1

>  <IC50_nM>
23.99

>  <Assay Description>
Agonist activity at PPARgamma

$$$$
CHEMBL5070753
Actelion Java MolfileCreator 2.0

  0  0  0  0  0  0              0 V3000
M  V30 BEGIN CTAB
M  V30 COUNTS 30 33 0 0 0
M  V30 BEGIN ATOM
M  V30 1 Cl 3.8971 -4.5 0.0 0
M  V30 2 C 3.8971 -3.0 0.0 0
M  V30 3 C 5.1961 -2.25 0.0 0
M  V30 4 C 2.598 -2.25 0.0 0
M  V30 5 Cl 6.4951 -3.0 0.0 0
M  V30 6 C 5.1961 -0.75 0.0 0
M  V30 7 C 2.598 -0.75 0.0 0
M  V30 8 C 3.8971 0.0 0.0 0
M  V30 9 C 1.299 0.0 0.0 0
M  V30 10 N 0.0 -0.75 0.0 0
M  V30 11 N -1.299 0.0 0.0 0
M  V30 12 C 0.0 -2.25 0.0 0
M  V30 13 C -2.598 -0.7499 0.0 0
M  V30 14 O 1.299 -3.0 0.0 0
M  V30 15 C -1.299 -2.9999 0.0 0
M  V30 16 C -2.598 -2.2499 0.0 0
M  V30 17 C -3.8971 0.0 0.0 0
M  V30 18 C -1.299 -4.4999 0.0 0
M  V30 19 C -3.8971 -2.9999 0.0 0
M  V30 20 O -3.8971 1.5 0.0 0
M  V30 21 O -5.1961 -0.7499 0.0 0
M  V30 22 C -2.598 -5.2499 0.0 0
M  V30 23 C -3.8971 -4.4999 0.0 0
M  V30 24 O -2.598 -6.7499 0.0 0
M  V30 25 C -1.299 -7.4999 0.0 0
M  V30 26 C -1.299 -9.0 0.0 0
M  V30 27 C 0.0 -6.75 0.0 0
M  V30 28 C 0.0 -9.75 0.0 0
M  V30 29 C 1.299 -7.5 0.0 0
M  V30 30 C 1.299 -9.0 0.0 0
M  V30 END ATOM
M  V30 BEGIN BOND
M  V30 1 1 1 2
M  V30 2 2 2 3
M  V30 3 1 2 4
M  V30 4 1 3 5
M  V30 5 1 3 6
M  V30 6 2 4 7
M  V30 7 2 6 8
M  V30 8 1 7 9
M  V30 9 1 9 10
M  V30 10 1 10 11
M  V30 11 1 10 12
M  V30 12 2 11 13
M  V30 13 2 12 14
M  V30 14 1 12 15
M  V30 15 1 13 16
M  V30 16 1 13 17
M  V30 17 1 15 18
M  V30 18 1 16 19
M  V30 19 2 17 20
M  V30 20 1 17 21
M  V30 21 2 18 22
M  V30 22 2 19 23
M  V30 23 1 22 24
M  V30 24 1 24 25
M  V30 25 2 25 26
M  V30 26 1 25 27
M  V30 27 1 26 28
M  V30 28 2 27 29
M  V30 29 2 28 30
M  V30 30 1 7 8
M  V30 31 2 15 16
M  V30 32 1 22 23
M  V30 33 1 29 30
M  V30 END BOND
M  V30 END CTAB
M  END
>  <Molecule ChEMBL ID>
CHEMBL5070753

>  <Smiles>
O=C(O)c1nn(Cc2ccc(Cl)c(Cl)c2)c(=O)c2cc(Oc3ccccc3)ccc12

>  <IC50_nM>
24

>  <Assay Description>
Binding affinity to PPARgamma (unknown origin) by lanthascreen TR-FRET assay

$$$$
CHEMBL223434
Actelion Java MolfileCreator 2.0

  0  0  0  0  0  0              0 V3000
M  V30 BEGIN CTAB
M  V30 COUNTS 36 39 0 0 0
M  V30 BEGIN ATOM
M  V30 1 O 2.598 -5.0 0.0 0
M  V30 2 C 3.4641 -4.5 0.0 0
M  V30 3 O 4.3301 -5.0 0.0 0
M  V30 4 N 3.4641 -3.5 0.0 0
M  V30 5 C 5.1961 -4.5 0.0 0
M  V30 6 C 4.3301 -2.9999 0.0 0
M  V30 7 C 2.598 -3.0 0.0 0
M  V30 8 C 5.1961 -3.5 0.0 0
M  V30 9 C 4.3301 -1.9999 0.0 0
M  V30 10 C 2.598 -2.0 0.0 0
M  V30 11 C 5.1961 -2.5 0.0 0
M  V30 12 C 3.4641 -1.5 0.0 0
M  V30 13 C 5.1961 -1.4999 0.0 0
M  V30 14 C 3.4641 -0.5 0.0 0
M  V30 15 C 5.1961 -0.5 0.0 0
M  V30 16 C 6.0621 -1.9999 0.0 0
M  V30 17 O 2.598 0.0 0.0 0
M  V30 18 C 4.3301 0.0 0.0 0
M  V30 19 C 6.9282 -1.5 0.0 0
M  V30 20 C 1.732 -0.5 0.0 0
M  V30 21 C 7.7942 -2.0 0.0 0
M  V30 22 C 0.866 0.0 0.0 0
M  V30 23 O 7.7942 -3.0 0.0 0
M  V30 24 O 8.6602 -1.5 0.0 0
M  V30 25 C 0.0 -0.5 0.0 0
M  V30 26 N -0.9135 -0.0932 0.0 0
M  V30 27 C -0.1045 -1.4945 0.0 0
M  V30 28 C -1.5826 -0.8364 0.0 0
M  V30 29 O -1.0826 -1.7024 0.0 0
M  V30 30 C 0.6386 -2.1636 0.0 0
M  V30 31 C -2.5771 -0.7318 0.0 0
M  V30 32 C -2.9839 0.1816 0.0 0
M  V30 33 C -3.1649 -1.5408 0.0 0
M  V30 34 C -3.9784 0.2861 0.0 0
M  V30 35 C -4.1595 -1.4363 0.0 0
M  V30 36 C -4.5662 -0.5228 0.0 0
M  V30 END ATOM
M  V30 BEGIN BOND
M  V30 1 2 1 2
M  V30 2 1 2 3
M  V30 3 1 2 4
M  V30 4 1 3 5
M  V30 5 1 4 6
M  V30 6 1 4 7
M  V30 7 1 5 8
M  V30 8 1 6 9
M  V30 9 1 7 10
M  V30 10 3 8 11
M  V30 11 2 9 12
M  V30 12 1 9 13
M  V30 13 1 12 14
M  V30 14 2 13 15
M  V30 15 1 13 16
M  V30 16 1 14 17
M  V30 17 2 14 18
M  V30 18 1 16 19
M  V30 19 1 17 20
M  V30 20 1 19 21
M  V30 21 1 20 22
M  V30 22 2 21 23
M  V30 23 1 21 24
M  V30 24 1 22 25
M  V30 25 1 25 26
M  V30 26 2 25 27
M  V30 27 2 26 28
M  V30 28 1 27 29
M  V30 29 1 27 30
M  V30 30 1 28 31
M  V30 31 2 31 32
M  V30 32 1 31 33
M  V30 33 1 32 34
M  V30 34 2 33 35
M  V30 35 2 34 36
M  V30 36 1 10 12
M  V30 37 1 15 18
M  V30 38 1 28 29
M  V30 39 1 35 36
M  V30 END BOND
M  V30 END CTAB
M  END
>  <Molecule ChEMBL ID>
CHEMBL223434

>  <Smiles>
C#CCOC(=O)N1CCc2c(OCCc3nc(-c4ccccc4)oc3C)ccc(CCC(=O)O)c2C1

>  <IC50_nM>
24

>  <Assay Description>
Displacement of tritium labeled ligand from human PPARgamma by SPA assay

$$$$
CHEMBL211513
Actelion Java MolfileCreator 2.0

  0  0  0  0  0  0              0 V3000
M  V30 BEGIN CTAB
M  V30 COUNTS 31 34 0 0 0
M  V30 BEGIN ATOM
M  V30 1 Cl 13.3546 2.6609 0.0 0
M  V30 2 C 12.5456 2.0731 0.0 0
M  V30 3 C 11.6321 2.4799 0.0 0
M  V30 4 C 12.6502 1.0786 0.0 0
M  V30 5 C 10.8231 1.8921 0.0 0
M  V30 6 C 11.8411 0.4908 0.0 0
M  V30 7 C 9.9095 2.2988 0.0 0
M  V30 8 C 10.9276 0.8975 0.0 0
M  V30 9 O 9.7016 3.277 0.0 0
M  V30 10 N 9.0435 1.7988 0.0 0
M  V30 11 C 8.7071 3.3815 0.0 0
M  V30 12 C 8.3003 2.4679 0.0 0
M  V30 13 C 8.2071 4.2475 0.0 0
M  V30 14 C 7.3222 2.26 0.0 0
M  V30 15 N 7.0132 1.309 0.0 0
M  V30 16 C 6.0621 0.9999 0.0 0
M  V30 17 C 7.601 0.5 0.0 0
M  V30 18 C 6.0621 0.0 0.0 0
M  V30 19 C 5.1961 1.4999 0.0 0
M  V30 20 C 7.0132 -0.309 0.0 0
M  V30 21 C 5.1961 -0.5 0.0 0
M  V30 22 C 4.3301 0.9999 0.0 0
M  V30 23 C 4.3301 0.0 0.0 0
M  V30 24 C 3.4641 -0.5 0.0 0
M  V30 25 C 2.598 0.0 0.0 0 CFG=2
M  V30 26 O 1.732 -0.5 0.0 0
M  V30 27 C 2.598 1.0 0.0 0
M  V30 28 C 0.866 0.0 0.0 0
M  V30 29 O 3.4641 1.4999 0.0 0
M  V30 30 O 1.732 1.5 0.0 0
M  V30 31 C 0.0 -0.5 0.0 0
M  V30 END ATOM
M  V30 BEGIN BOND
M  V30 1 1 1 2
M  V30 2 2 2 3
M  V30 3 1 2 4
M  V30 4 1 3 5
M  V30 5 2 4 6
M  V30 6 1 5 7
M  V30 7 2 5 8
M  V30 8 1 7 9
M  V30 9 2 7 10
M  V30 10 1 9 11
M  V30 11 1 10 12
M  V30 12 1 11 13
M  V30 13 1 12 14
M  V30 14 1 14 15
M  V30 15 1 15 16
M  V30 16 1 15 17
M  V30 17 2 16 18
M  V30 18 1 16 19
M  V30 19 2 17 20
M  V30 20 1 18 21
M  V30 21 2 19 22
M  V30 22 2 21 23
M  V30 23 1 23 24
M  V30 24 1 24 25
M  V30 25 1 25 26 CFG=3
M  V30 26 1 25 27
M  V30 27 1 26 28
M  V30 28 2 27 29
M  V30 29 1 27 30
M  V30 30 1 28 31
M  V30 31 1 6 8
M  V30 32 2 11 12
M  V30 33 1 18 20
M  V30 34 1 22 23
M  V30 END BOND
M  V30 BEGIN COLLECTION
M  V30 MDLV30/STERAC1 ATOMS=(1 25)
M  V30 END COLLECTION
M  V30 END CTAB
M  END
>  <Molecule ChEMBL ID>
CHEMBL211513

>  <Smiles>
CCOC(Cc1ccc2c(ccn2Cc2nc(-c3cccc(Cl)c3)oc2C)c1)C(=O)O

>  <IC50_nM>
24

>  <Assay Description>
Binding affinity to PPARgamma by radio ligand binding assay

$$$$
CHEMBL3678146
Actelion Java MolfileCreator 2.0

  0  0  0  0  0  0              0 V3000
M  V30 BEGIN CTAB
M  V30 COUNTS 38 42 0 0 0
M  V30 BEGIN ATOM
M  V30 1 O 5.1961 -0.75 0.0 0
M  V30 2 C 3.8971 0.0 0.0 0
M  V30 3 N 2.598 -0.75 0.0 0
M  V30 4 C 3.8971 1.5 0.0 0
M  V30 5 C 1.299 0.0 0.0 0 CFG=2
M  V30 6 C 2.598 2.25 0.0 0
M  V30 7 C 5.1961 2.25 0.0 0
M  V30 8 C 0.0 -0.75 0.0 0
M  V30 9 C 1.299 1.5 0.0 0
M  V30 10 C 2.598 3.75 0.0 0
M  V30 11 C 5.1961 3.75 0.0 0
M  V30 12 C 0.0 -2.25 0.0 0
M  V30 13 C -1.299 0.0 0.0 0
M  V30 14 C 3.8971 4.5 0.0 0
M  V30 15 C 1.4833 4.7537 0.0 0
M  V30 16 C -1.299 -3.0 0.0 0
M  V30 17 C -2.598 -0.75 0.0 0
M  V30 18 N 3.5852 5.9672 0.0 0
M  V30 19 C 2.0934 6.124 0.0 0
M  V30 20 C 0.0161 4.4418 0.0 0
M  V30 21 C -2.598 -2.25 0.0 0
M  V30 22 C -1.299 -4.5 0.0 0
M  V30 23 C 4.5889 7.0819 0.0 0
M  V30 24 C 1.3434 7.423 0.0 0
M  V30 25 C -0.549 -5.799 0.0 0
M  V30 26 C -2.049 -5.799 0.0 0
M  V30 27 C 4.1254 8.5085 0.0 0
M  V30 28 C 5.1291 9.6232 0.0 0
M  V30 29 C 2.6581 8.8204 0.0 0
M  V30 30 C 4.6655 11.0498 0.0 0
M  V30 31 C 2.1946 10.2469 0.0 0
M  V30 32 C 3.1983 11.3617 0.0 0
M  V30 33 C 5.6692 12.1645 0.0 0
M  V30 34 C 7.1365 11.8526 0.0 0
M  V30 35 C 5.9811 13.6317 0.0 0
M  V30 36 C 4.5545 13.1682 0.0 0
M  V30 37 O 7.6 10.4261 0.0 0
M  V30 38 N 8.1402 12.9674 0.0 0
M  V30 END ATOM
M  V30 BEGIN BOND
M  V30 1 2 1 2
M  V30 2 1 2 3
M  V30 3 1 2 4
M  V30 4 1 3 5
M  V30 5 2 4 6
M  V30 6 1 4 7
M  V30 7 1 5 8
M  V30 8 1 5 9 CFG=3
M  V30 9 1 6 10
M  V30 10 2 7 11
M  V30 11 2 8 12
M  V30 12 1 8 13
M  V30 13 2 10 14
M  V30 14 1 10 15
M  V30 15 1 12 16
M  V30 16 2 13 17
M  V30 17 1 14 18
M  V30 18 2 15 19
M  V30 19 1 15 20
M  V30 20 2 16 21
M  V30 21 1 16 22
M  V30 22 1 18 23
M  V30 23 1 19 24
M  V30 24 1 22 25
M  V30 25 1 22 26
M  V30 26 1 23 27
M  V30 27 2 27 28
M  V30 28 1 27 29
M  V30 29 1 28 30
M  V30 30 2 29 31
M  V30 31 2 30 32
M  V30 32 1 30 33
M  V30 33 1 33 34
M  V30 34 1 33 35
M  V30 35 1 33 36
M  V30 36 2 34 37
M  V30 37 1 34 38
M  V30 38 1 11 14
M  V30 39 1 17 21
M  V30 40 1 18 19
M  V30 41 1 25 26
M  V30 42 1 31 32
M  V30 END BOND
M  V30 BEGIN COLLECTION
M  V30 MDLV30/STEABS ATOMS=(1 5)
M  V30 END COLLECTION
M  V30 END CTAB
M  END
>  <Molecule ChEMBL ID>
CHEMBL3678146

>  <Smiles>
Cc1c(C)n(Cc2cccc(C(C)(C)C(N)=O)c2)c2ccc(C(=O)N[C@@H](C)c3cccc(C4CC4)c3)cc12

>  <IC50_nM>
24

>  <Assay Description>
Lanthascreen Competitive Binding Assay: The assay was performed according to manufacturer protocol. A mixture of 5 nM GST-PPARG-LBD, 5 nM Tb-GST-antibody, 5 nM Fluormone Pan- PPAR Green, and serial dilutions of the experimental compound, beginning at 10 ׬� downwards, was added to wells of black 384-well low- volume plates (Greiner) to a total volume of 18 xL. All dilutions were made in TR-FRET assay buffer C. DMSO at 2% final concentration was used as a no-ligand control. Experiment was performed in triplicate, and incubated for 2 hours in the dark prior to assay read in Perkin Elmer ViewLux ultra HTS microplate reader. FRET signal was measured by excitation at 340 nm and emission at 520 nm for fluorescein and 490 nm for terbium.

$$$$
CHEMBL3695856
Actelion Java MolfileCreator 2.0

  0  0  0  0  0  0              0 V3000
M  V30 BEGIN CTAB
M  V30 COUNTS 38 42 0 0 0
M  V30 BEGIN ATOM
M  V30 1 Br 6.0621 -1.9999 0.0 0
M  V30 2 C 5.1961 -1.4999 0.0 0
M  V30 3 C 5.1961 -0.5 0.0 0
M  V30 4 C 4.3301 -1.9999 0.0 0
M  V30 5 C 4.3301 0.0 0.0 0
M  V30 6 C 3.4641 -1.5 0.0 0
M  V30 7 C 3.4641 -0.5 0.0 0
M  V30 8 C 2.598 0.0 0.0 0 CFG=1
M  V30 9 N 1.732 -0.5 0.0 0
M  V30 10 C 2.598 1.0 0.0 0
M  V30 11 C 0.866 0.0 0.0 0
M  V30 12 O 0.866 1.0 0.0 0
M  V30 13 C 0.0 -0.5 0.0 0
M  V30 14 C 0.0 -1.4999 0.0 0
M  V30 15 C -0.866 0.0 0.0 0
M  V30 16 C -0.866 -1.9999 0.0 0
M  V30 17 C -1.732 -0.4999 0.0 0
M  V30 18 C -1.732 -1.4999 0.0 0
M  V30 19 C -1.0739 -2.9781 0.0 0
M  V30 20 N -2.4751 -2.1691 0.0 0
M  V30 21 C -2.0684 -3.0826 0.0 0
M  V30 22 C -0.4048 -3.7212 0.0 0
M  V30 23 C -3.4533 -1.9612 0.0 0
M  V30 24 C -4.1224 -2.7043 0.0 0
M  V30 25 C -5.1006 -2.4964 0.0 0
M  V30 26 C -3.8134 -3.6554 0.0 0
M  V30 27 C -5.7697 -3.2395 0.0 0
M  V30 28 C -4.4825 -4.3985 0.0 0
M  V30 29 C -5.4607 -4.1906 0.0 0
M  V30 30 C -6.1298 -4.9337 0.0 0
M  V30 31 C -7.108 -4.7258 0.0 0
M  V30 32 C -5.8208 -5.8848 0.0 0
M  V30 33 C -7.417 -3.7748 0.0 0
M  V30 34 C -7.7771 -5.469 0.0 0
M  V30 35 C -6.4899 -6.6279 0.0 0
M  V30 36 O -6.7478 -3.0316 0.0 0
M  V30 37 O -8.3951 -3.5669 0.0 0
M  V30 38 C -7.4681 -6.42 0.0 0
M  V30 END ATOM
M  V30 BEGIN BOND
M  V30 1 1 1 2
M  V30 2 2 2 3
M  V30 3 1 2 4
M  V30 4 1 3 5
M  V30 5 2 4 6
M  V30 6 2 5 7
M  V30 7 1 7 8
M  V30 8 1 8 9
M  V30 9 1 8 10 CFG=1
M  V30 10 1 9 11
M  V30 11 2 11 12
M  V30 12 1 11 13
M  V30 13 2 13 14
M  V30 14 1 13 15
M  V30 15 1 14 16
M  V30 16 2 15 17
M  V30 17 2 16 18
M  V30 18 1 16 19
M  V30 19 1 18 20
M  V30 20 2 19 21
M  V30 21 1 19 22
M  V30 22 1 20 23
M  V30 23 1 23 24
M  V30 24 2 24 25
M  V30 25 1 24 26
M  V30 26 1 25 27
M  V30 27 2 26 28
M  V30 28 2 27 29
M  V30 29 1 29 30
M  V30 30 2 30 31
M  V30 31 1 30 32
M  V30 32 1 31 33
M  V30 33 1 31 34
M  V30 34 2 32 35
M  V30 35 2 33 36
M  V30 36 1 33 37
M  V30 37 2 34 38
M  V30 38 1 6 7
M  V30 39 1 17 18
M  V30 40 1 20 21
M  V30 41 1 28 29
M  V30 42 1 35 38
M  V30 END BOND
M  V30 BEGIN COLLECTION
M  V30 MDLV30/STEABS ATOMS=(1 8)
M  V30 END COLLECTION
M  V30 END CTAB
M  END
>  <Molecule ChEMBL ID>
CHEMBL3695856

>  <Smiles>
Cc1cn(Cc2ccc(-c3ccccc3C(=O)O)cc2)c2ccc(C(=O)N[C@@H](C)c3ccc(Br)cc3)cc12

>  <IC50_nM>
24

>  <Assay Description>
Lanthascreen Competitive Binding Assay: The assay was performed according to manufacturer protocol. A mixture of nM GST-PPARG-LBD, 5 nM Tb-GST-antibody, 5 nM Fluormone Pan-PPAR Green, and serial dilutions of the experimental compound, beginning at 10 ׬M downwards, was added to wells of black 384-well low-volume plates (Greiner) to a total volume of 18 ׬L. All dilutions were made in TR-FRET assay buffer C. DMSO at 2% final concentration was used as a no-ligand control. Experiment was performed in triplicate, and incubated for 2 hours in the dark prior to assay read in Perkin Elmer ViewLux ultra HTS microplate reader. FRET signal was measured by excitation at 340 nm and emission at 520 nm for fluorescein and 490 nm for terbium. Fold change over DMSO was calculated using GraphPad Prism Software (La Jolla, Calif.) by calculating 520 nm/490 nm ratio. Graphs were plotted as fold change of FRET signal for compound treatment over DMSO-only control.

$$$$
CHEMBL3695852
Actelion Java MolfileCreator 2.0

  0  0  0  0  0  0              0 V3000
M  V30 BEGIN CTAB
M  V30 COUNTS 40 44 0 0 0
M  V30 BEGIN ATOM
M  V30 1 O 5.1961 1.4999 0.0 0
M  V30 2 N 4.3301 0.9999 0.0 0 CHG=1
M  V30 3 O 3.4641 1.5 0.0 0 CHG=-1
M  V30 4 C 4.3301 0.0 0.0 0
M  V30 5 C 3.4641 -0.5 0.0 0
M  V30 6 C 5.1961 -0.5 0.0 0
M  V30 7 C 3.4641 -1.5 0.0 0
M  V30 8 C 2.598 0.0 0.0 0
M  V30 9 C 5.1961 -1.5 0.0 0
M  V30 10 C 4.3301 -2.0 0.0 0
M  V30 11 N 1.732 -0.5 0.0 0
M  V30 12 C 0.866 0.0 0.0 0
M  V30 13 O 0.866 1.0 0.0 0
M  V30 14 C 0.0 -0.5 0.0 0
M  V30 15 C 0.0 -1.4999 0.0 0
M  V30 16 C -0.866 0.0 0.0 0
M  V30 17 C -0.866 -1.9999 0.0 0
M  V30 18 C -1.732 -0.4999 0.0 0
M  V30 19 C -1.732 -1.4999 0.0 0
M  V30 20 C -1.0739 -2.9781 0.0 0
M  V30 21 N -2.4751 -2.1691 0.0 0
M  V30 22 C -2.0684 -3.0826 0.0 0
M  V30 23 C -0.4048 -3.7212 0.0 0
M  V30 24 C -3.4533 -1.9612 0.0 0
M  V30 25 C -2.5684 -3.9487 0.0 0
M  V30 26 C -4.1224 -2.7043 0.0 0
M  V30 27 C -5.1006 -2.4964 0.0 0
M  V30 28 C -3.8134 -3.6554 0.0 0
M  V30 29 C -5.7697 -3.2395 0.0 0
M  V30 30 C -4.4825 -4.3985 0.0 0
M  V30 31 C -5.4607 -4.1906 0.0 0
M  V30 32 C -6.1298 -4.9337 0.0 0
M  V30 33 C -7.108 -4.7258 0.0 0
M  V30 34 C -5.8208 -5.8848 0.0 0
M  V30 35 C -7.417 -3.7748 0.0 0
M  V30 36 C -7.7771 -5.469 0.0 0
M  V30 37 C -6.4899 -6.6279 0.0 0
M  V30 38 O -6.7478 -3.0316 0.0 0
M  V30 39 O -8.3951 -3.5669 0.0 0
M  V30 40 C -7.4681 -6.42 0.0 0
M  V30 END ATOM
M  V30 BEGIN BOND
M  V30 1 2 1 2
M  V30 2 1 2 3
M  V30 3 1 2 4
M  V30 4 2 4 5
M  V30 5 1 4 6
M  V30 6 1 5 7
M  V30 7 1 5 8
M  V30 8 2 6 9
M  V30 9 2 7 10
M  V30 10 1 8 11
M  V30 11 1 11 12
M  V30 12 2 12 13
M  V30 13 1 12 14
M  V30 14 2 14 15
M  V30 15 1 14 16
M  V30 16 1 15 17
M  V30 17 2 16 18
M  V30 18 2 17 19
M  V30 19 1 17 20
M  V30 20 1 19 21
M  V30 21 2 20 22
M  V30 22 1 20 23
M  V30 23 1 21 24
M  V30 24 1 22 25
M  V30 25 1 24 26
M  V30 26 2 26 27
M  V30 27 1 26 28
M  V30 28 1 27 29
M  V30 29 2 28 30
M  V30 30 2 29 31
M  V30 31 1 31 32
M  V30 32 2 32 33
M  V30 33 1 32 34
M  V30 34 1 33 35
M  V30 35 1 33 36
M  V30 36 2 34 37
M  V30 37 2 35 38
M  V30 38 1 35 39
M  V30 39 2 36 40
M  V30 40 1 9 10
M  V30 41 1 18 19
M  V30 42 1 21 22
M  V30 43 1 30 31
M  V30 44 1 37 40
M  V30 END BOND
M  V30 END CTAB
M  END
>  <Molecule ChEMBL ID>
CHEMBL3695852

>  <Smiles>
Cc1c(C)n(Cc2ccc(-c3ccccc3C(=O)O)cc2)c2ccc(C(=O)NCc3ccccc3[N+](=O)[O-])cc12

>  <IC50_nM>
24

>  <Assay Description>
Lanthascreen Competitive Binding Assay: The assay was performed according to manufacturer protocol. A mixture of nM GST-PPARG-LBD, 5 nM Tb-GST-antibody, 5 nM Fluormone Pan-PPAR Green, and serial dilutions of the experimental compound, beginning at 10 ׬M downwards, was added to wells of black 384-well low-volume plates (Greiner) to a total volume of 18 ׬L. All dilutions were made in TR-FRET assay buffer C. DMSO at 2% final concentration was used as a no-ligand control. Experiment was performed in triplicate, and incubated for 2 hours in the dark prior to assay read in Perkin Elmer ViewLux ultra HTS microplate reader. FRET signal was measured by excitation at 340 nm and emission at 520 nm for fluorescein and 490 nm for terbium. Fold change over DMSO was calculated using GraphPad Prism Software (La Jolla, Calif.) by calculating 520 nm/490 nm ratio. Graphs were plotted as fold change of FRET signal for compound treatment over DMSO-only control.

$$$$
CHEMBL3695852
Actelion Java MolfileCreator 2.0

  0  0  0  0  0  0              0 V3000
M  V30 BEGIN CTAB
M  V30 COUNTS 40 44 0 0 0
M  V30 BEGIN ATOM
M  V30 1 O 5.1961 1.4999 0.0 0
M  V30 2 N 4.3301 0.9999 0.0 0 CHG=1
M  V30 3 O 3.4641 1.5 0.0 0 CHG=-1
M  V30 4 C 4.3301 0.0 0.0 0
M  V30 5 C 3.4641 -0.5 0.0 0
M  V30 6 C 5.1961 -0.5 0.0 0
M  V30 7 C 3.4641 -1.5 0.0 0
M  V30 8 C 2.598 0.0 0.0 0
M  V30 9 C 5.1961 -1.5 0.0 0
M  V30 10 C 4.3301 -2.0 0.0 0
M  V30 11 N 1.732 -0.5 0.0 0
M  V30 12 C 0.866 0.0 0.0 0
M  V30 13 O 0.866 1.0 0.0 0
M  V30 14 C 0.0 -0.5 0.0 0
M  V30 15 C 0.0 -1.4999 0.0 0
M  V30 16 C -0.866 0.0 0.0 0
M  V30 17 C -0.866 -1.9999 0.0 0
M  V30 18 C -1.732 -0.4999 0.0 0
M  V30 19 C -1.732 -1.4999 0.0 0
M  V30 20 C -1.0739 -2.9781 0.0 0
M  V30 21 N -2.4751 -2.1691 0.0 0
M  V30 22 C -2.0684 -3.0826 0.0 0
M  V30 23 C -0.4048 -3.7212 0.0 0
M  V30 24 C -3.4533 -1.9612 0.0 0
M  V30 25 C -2.5684 -3.9487 0.0 0
M  V30 26 C -4.1224 -2.7043 0.0 0
M  V30 27 C -5.1006 -2.4964 0.0 0
M  V30 28 C -3.8134 -3.6554 0.0 0
M  V30 29 C -5.7697 -3.2395 0.0 0
M  V30 30 C -4.4825 -4.3985 0.0 0
M  V30 31 C -5.4607 -4.1906 0.0 0
M  V30 32 C -6.1298 -4.9337 0.0 0
M  V30 33 C -7.108 -4.7258 0.0 0
M  V30 34 C -5.8208 -5.8848 0.0 0
M  V30 35 C -7.417 -3.7748 0.0 0
M  V30 36 C -7.7771 -5.469 0.0 0
M  V30 37 C -6.4899 -6.6279 0.0 0
M  V30 38 O -6.7478 -3.0316 0.0 0
M  V30 39 O -8.3951 -3.5669 0.0 0
M  V30 40 C -7.4681 -6.42 0.0 0
M  V30 END ATOM
M  V30 BEGIN BOND
M  V30 1 2 1 2
M  V30 2 1 2 3
M  V30 3 1 2 4
M  V30 4 2 4 5
M  V30 5 1 4 6
M  V30 6 1 5 7
M  V30 7 1 5 8
M  V30 8 2 6 9
M  V30 9 2 7 10
M  V30 10 1 8 11
M  V30 11 1 11 12
M  V30 12 2 12 13
M  V30 13 1 12 14
M  V30 14 2 14 15
M  V30 15 1 14 16
M  V30 16 1 15 17
M  V30 17 2 16 18
M  V30 18 2 17 19
M  V30 19 1 17 20
M  V30 20 1 19 21
M  V30 21 2 20 22
M  V30 22 1 20 23
M  V30 23 1 21 24
M  V30 24 1 22 25
M  V30 25 1 24 26
M  V30 26 2 26 27
M  V30 27 1 26 28
M  V30 28 1 27 29
M  V30 29 2 28 30
M  V30 30 2 29 31
M  V30 31 1 31 32
M  V30 32 2 32 33
M  V30 33 1 32 34
M  V30 34 1 33 35
M  V30 35 1 33 36
M  V30 36 2 34 37
M  V30 37 2 35 38
M  V30 38 1 35 39
M  V30 39 2 36 40
M  V30 40 1 9 10
M  V30 41 1 18 19
M  V30 42 1 21 22
M  V30 43 1 30 31
M  V30 44 1 37 40
M  V30 END BOND
M  V30 END CTAB
M  END
>  <Molecule ChEMBL ID>
CHEMBL3695852

>  <Smiles>
Cc1c(C)n(Cc2ccc(-c3ccccc3C(=O)O)cc2)c2ccc(C(=O)NCc3ccccc3[N+](=O)[O-])cc12

>  <IC50_nM>
24

>  <Assay Description>
Binding affinity to GST-tagged PPAR-gamma-LBD (unknown origin) after 2 hrs by Lantha screen assay using fluormone Pan-PPAR green probe

$$$$
CHEMBL82602
Actelion Java MolfileCreator 2.0

  0  0  0  0  0  0              0 V3000
M  V30 BEGIN CTAB
M  V30 COUNTS 33 36 0 0 0
M  V30 BEGIN ATOM
M  V30 1 S 5.9316 -2.8238 0.0 0
M  V30 2 C 4.9535 -2.6159 0.0 0
M  V30 3 C 6.0361 -3.8184 0.0 0
M  V30 4 C 4.5467 -1.7024 0.0 0
M  V30 5 C 4.4535 -3.482 0.0 0
M  V30 6 C 5.1226 -4.2251 0.0 0
M  V30 7 O 5.0467 -0.8364 0.0 0
M  V30 8 N 3.5686 -1.4945 0.0 0
M  V30 9 C 4.3776 -0.0932 0.0 0
M  V30 10 C 3.4641 -0.5 0.0 0
M  V30 11 C 4.5855 0.8848 0.0 0
M  V30 12 C 2.598 0.0 0.0 0
M  V30 13 C 1.732 -0.5 0.0 0
M  V30 14 O 0.866 0.0 0.0 0
M  V30 15 C 0.0 -0.5 0.0 0
M  V30 16 C -0.866 0.0 0.0 0
M  V30 17 C 0.0 -1.4999 0.0 0
M  V30 18 C -1.732 -0.4999 0.0 0
M  V30 19 C -0.866 -1.9999 0.0 0
M  V30 20 C -1.732 -1.4999 0.0 0
M  V30 21 C -2.598 -1.9999 0.0 0
M  V30 22 C -2.598 -2.9999 0.0 0 CFG=2
M  V30 23 O -1.732 -3.4999 0.0 0
M  V30 24 C -3.4641 -3.4999 0.0 0
M  V30 25 C -1.732 -2.4999 0.0 0
M  V30 26 C -1.732 -4.4999 0.0 0
M  V30 27 O -4.3301 -2.9999 0.0 0
M  V30 28 O -3.4641 -4.4999 0.0 0
M  V30 29 C -2.598 -4.9999 0.0 0
M  V30 30 C -0.866 -5.0 0.0 0
M  V30 31 C -2.598 -5.9999 0.0 0
M  V30 32 C -0.866 -6.0 0.0 0
M  V30 33 C -1.732 -6.4999 0.0 0
M  V30 END ATOM
M  V30 BEGIN BOND
M  V30 1 1 1 2
M  V30 2 1 1 3
M  V30 3 1 2 4
M  V30 4 2 2 5
M  V30 5 2 3 6
M  V30 6 1 4 7
M  V30 7 2 4 8
M  V30 8 1 7 9
M  V30 9 1 8 10
M  V30 10 1 9 11
M  V30 11 1 10 12
M  V30 12 1 12 13
M  V30 13 1 13 14
M  V30 14 1 14 15
M  V30 15 2 15 16
M  V30 16 1 15 17
M  V30 17 1 16 18
M  V30 18 2 17 19
M  V30 19 2 18 20
M  V30 20 1 20 21
M  V30 21 1 21 22
M  V30 22 1 22 23
M  V30 23 1 22 24
M  V30 24 1 22 25 CFG=1
M  V30 25 1 23 26
M  V30 26 2 24 27
M  V30 27 1 24 28
M  V30 28 2 26 29
M  V30 29 1 26 30
M  V30 30 1 29 31
M  V30 31 2 30 32
M  V30 32 2 31 33
M  V30 33 1 5 6
M  V30 34 2 9 10
M  V30 35 1 19 20
M  V30 36 1 32 33
M  V30 END BOND
M  V30 BEGIN COLLECTION
M  V30 MDLV30/STERAC1 ATOMS=(1 22)
M  V30 END COLLECTION
M  V30 END CTAB
M  END
>  <Molecule ChEMBL ID>
CHEMBL82602

>  <Smiles>
Cc1oc(-c2cccs2)nc1CCOc1ccc(CC(C)(Oc2ccccc2)C(=O)O)cc1

>  <IC50_nM>
24

>  <Assay Description>
Displacement of PPARgamma agonist from human PPAR gamma receptor

$$$$
CHEMBL452054
Actelion Java MolfileCreator 2.0

  0  0  0  0  0  0              0 V3000
M  V30 BEGIN CTAB
M  V30 COUNTS 32 35 0 0 0
M  V30 BEGIN ATOM
M  V30 1 Cl 6.0621 -1.9999 0.0 0
M  V30 2 C 5.1961 -1.4999 0.0 0
M  V30 3 C 5.1961 -0.5 0.0 0
M  V30 4 C 4.3301 -1.9999 0.0 0
M  V30 5 C 4.3301 0.0 0.0 0
M  V30 6 C 6.0621 0.0 0.0 0
M  V30 7 C 3.4641 -1.5 0.0 0
M  V30 8 C 3.4641 -0.5 0.0 0
M  V30 9 N 6.0621 0.9999 0.0 0
M  V30 10 O 2.598 0.0 0.0 0
M  V30 11 C 6.8711 1.5877 0.0 0
M  V30 12 C 5.2531 1.5877 0.0 0
M  V30 13 C 1.732 -0.5 0.0 0 CFG=2
M  V30 14 N 7.8493 1.3798 0.0 0
M  V30 15 C 6.5621 2.5388 0.0 0
M  V30 16 C 5.5621 2.5388 0.0 0
M  V30 17 C 4.3021 1.2787 0.0 0
M  V30 18 C 0.866 0.0 0.0 0
M  V30 19 C 1.732 -1.5 0.0 0
M  V30 20 C 8.5184 2.123 0.0 0
M  V30 21 C 7.2313 3.2819 0.0 0
M  V30 22 O 4.9743 3.3478 0.0 0
M  V30 23 O 0.866 1.0 0.0 0
M  V30 24 O 0.0 -0.5 0.0 0
M  V30 25 C 8.2094 3.074 0.0 0
M  V30 26 C 3.9798 3.2433 0.0 0
M  V30 27 C 3.392 4.0523 0.0 0
M  V30 28 C 3.5731 2.3297 0.0 0
M  V30 29 C 2.3975 3.9478 0.0 0
M  V30 30 C 2.5786 2.2252 0.0 0
M  V30 31 C 1.9908 3.0342 0.0 0
M  V30 32 Cl 0.9963 2.9297 0.0 0
M  V30 END ATOM
M  V30 BEGIN BOND
M  V30 1 1 1 2
M  V30 2 2 2 3
M  V30 3 1 2 4
M  V30 4 1 3 5
M  V30 5 1 3 6
M  V30 6 2 4 7
M  V30 7 2 5 8
M  V30 8 1 6 9
M  V30 9 1 8 10
M  V30 10 1 9 11
M  V30 11 1 9 12
M  V30 12 1 10 13
M  V30 13 2 11 14
M  V30 14 1 11 15
M  V30 15 2 12 16
M  V30 16 1 12 17
M  V30 17 1 13 18
M  V30 18 1 13 19 CFG=1
M  V30 19 1 14 20
M  V30 20 2 15 21
M  V30 21 1 16 22
M  V30 22 2 18 23
M  V30 23 1 18 24
M  V30 24 2 20 25
M  V30 25 1 22 26
M  V30 26 2 26 27
M  V30 27 1 26 28
M  V30 28 1 27 29
M  V30 29 2 28 30
M  V30 30 2 29 31
M  V30 31 1 31 32
M  V30 32 1 7 8
M  V30 33 1 15 16
M  V30 34 1 21 25
M  V30 35 1 30 31
M  V30 END BOND
M  V30 BEGIN COLLECTION
M  V30 MDLV30/STEABS ATOMS=(1 13)
M  V30 END COLLECTION
M  V30 END CTAB
M  END
>  <Molecule ChEMBL ID>
CHEMBL452054

>  <Smiles>
Cc1c(Oc2ccc(Cl)cc2)c2cccnc2n1Cc1cc(O[C@@H](C)C(=O)O)ccc1Cl

>  <IC50_nM>
25

>  <Assay Description>
Displacement of [3H]2AD-5075 from GST-tagged human PPARgamma receptor expressed in Escherichia coli BL21

$$$$
CHEMBL211839
Actelion Java MolfileCreator 2.0

  0  0  0  0  0  0              0 V3000
M  V30 BEGIN CTAB
M  V30 COUNTS 34 37 0 0 0
M  V30 BEGIN ATOM
M  V30 1 O 4.3301 0.0 0.0 0
M  V30 2 C 3.4641 -0.5 0.0 0
M  V30 3 O 3.4641 -1.5 0.0 0
M  V30 4 C 2.598 0.0 0.0 0 CFG=1
M  V30 5 O 1.732 -0.5 0.0 0
M  V30 6 C 2.598 1.0 0.0 0
M  V30 7 C 0.866 0.0 0.0 0
M  V30 8 C 1.732 1.5 0.0 0
M  V30 9 C 0.0 -0.5 0.0 0
M  V30 10 C 0.866 1.0 0.0 0
M  V30 11 C 1.732 2.5 0.0 0
M  V30 12 C 0.0 1.5 0.0 0
M  V30 13 C 0.866 3.0 0.0 0
M  V30 14 C 0.0 2.5 0.0 0
M  V30 15 C -0.951 1.1909 0.0 0
M  V30 16 N -0.951 2.809 0.0 0
M  V30 17 C -1.5388 2.0 0.0 0
M  V30 18 C -1.26 3.76 0.0 0
M  V30 19 C -2.2382 3.9679 0.0 0
M  V30 20 N -2.6449 4.8815 0.0 0
M  V30 21 C -2.9813 3.2988 0.0 0
M  V30 22 C -3.6394 4.777 0.0 0
M  V30 23 O -3.8473 3.7988 0.0 0
M  V30 24 C -2.8768 2.3043 0.0 0
M  V30 25 C -4.3086 5.5201 0.0 0
M  V30 26 C -3.9995 6.4712 0.0 0
M  V30 27 C -5.2867 5.3122 0.0 0
M  V30 28 C -4.6687 7.2143 0.0 0
M  V30 29 C -5.9558 6.0553 0.0 0
M  V30 30 O -4.3597 8.1654 0.0 0
M  V30 31 C -5.6468 7.0064 0.0 0
M  V30 32 O -6.934 5.8474 0.0 0
M  V30 33 C -5.0288 8.9085 0.0 0
M  V30 34 C -7.243 4.8964 0.0 0
M  V30 END ATOM
M  V30 BEGIN BOND
M  V30 1 2 1 2
M  V30 2 1 2 3
M  V30 3 1 2 4
M  V30 4 1 4 5 CFG=1
M  V30 5 1 4 6
M  V30 6 1 5 7
M  V30 7 1 6 8
M  V30 8 1 7 9
M  V30 9 2 8 10
M  V30 10 1 8 11
M  V30 11 1 10 12
M  V30 12 2 11 13
M  V30 13 2 12 14
M  V30 14 1 12 15
M  V30 15 1 14 16
M  V30 16 2 15 17
M  V30 17 1 16 18
M  V30 18 1 18 19
M  V30 19 1 19 20
M  V30 20 2 19 21
M  V30 21 2 20 22
M  V30 22 1 21 23
M  V30 23 1 21 24
M  V30 24 1 22 25
M  V30 25 2 25 26
M  V30 26 1 25 27
M  V30 27 1 26 28
M  V30 28 2 27 29
M  V30 29 1 28 30
M  V30 30 2 28 31
M  V30 31 1 29 32
M  V30 32 1 30 33
M  V30 33 1 32 34
M  V30 34 1 13 14
M  V30 35 1 16 17
M  V30 36 1 22 23
M  V30 37 1 29 31
M  V30 END BOND
M  V30 BEGIN COLLECTION
M  V30 MDLV30/STERAC1 ATOMS=(1 4)
M  V30 END COLLECTION
M  V30 END CTAB
M  END
>  <Molecule ChEMBL ID>
CHEMBL211839

>  <Smiles>
CCOC(Cc1ccc2c(ccn2Cc2nc(-c3cc(OC)cc(OC)c3)oc2C)c1)C(=O)O

>  <IC50_nM>
25

>  <Assay Description>
Binding affinity to PPARgamma by radio ligand binding assay

$$$$
CHEMBL2331777
Actelion Java MolfileCreator 2.0

  0  0  0  0  0  0              0 V3000
M  V30 BEGIN CTAB
M  V30 COUNTS 30 32 0 0 0
M  V30 BEGIN ATOM
M  V30 1 I 15.5884 2.25 0.0 0
M  V30 2 C 14.2894 1.5 0.0 0
M  V30 3 C 12.9903 2.25 0.0 0
M  V30 4 C 14.2894 0.0 0.0 0
M  V30 5 C 11.6913 1.5 0.0 0
M  V30 6 C 12.9903 -0.75 0.0 0
M  V30 7 C 11.6913 0.0 0.0 0
M  V30 8 S 10.3923 -0.75 0.0 0
M  V30 9 O 9.6423 -2.049 0.0 0
M  V30 10 O 11.1423 -2.049 0.0 0
M  V30 11 N 9.0932 0.0 0.0 0
M  V30 12 C 7.7942 -0.75 0.0 0
M  V30 13 C 6.4951 0.0 0.0 0
M  V30 14 C 7.7942 -2.25 0.0 0
M  V30 15 C 5.1961 -0.75 0.0 0
M  V30 16 C 6.4951 -3.0 0.0 0
M  V30 17 C 5.1961 -2.25 0.0 0
M  V30 18 C 3.8971 0.0 0.0 0
M  V30 19 O 3.8971 -3.0 0.0 0
M  V30 20 O 3.8971 1.5 0.0 0
M  V30 21 N 2.598 -0.75 0.0 0
M  V30 22 C 3.8971 -4.5 0.0 0
M  V30 23 C 1.299 0.0 0.0 0
M  V30 24 C 2.598 -5.25 0.0 0
M  V30 25 C 5.1961 -5.25 0.0 0
M  V30 26 C 0.0 -0.75 0.0 0
M  V30 27 N 2.598 -6.75 0.0 0
M  V30 28 C 5.1961 -6.75 0.0 0
M  V30 29 C 3.8971 -7.5 0.0 0
M  V30 30 Cl 6.4951 -7.5 0.0 0
M  V30 END ATOM
M  V30 BEGIN BOND
M  V30 1 1 1 2
M  V30 2 2 2 3
M  V30 3 1 2 4
M  V30 4 1 3 5
M  V30 5 2 4 6
M  V30 6 2 5 7
M  V30 7 1 7 8
M  V30 8 2 8 9
M  V30 9 2 8 10
M  V30 10 1 8 11
M  V30 11 1 11 12
M  V30 12 2 12 13
M  V30 13 1 12 14
M  V30 14 1 13 15
M  V30 15 2 14 16
M  V30 16 2 15 17
M  V30 17 1 15 18
M  V30 18 1 17 19
M  V30 19 2 18 20
M  V30 20 1 18 21
M  V30 21 1 19 22
M  V30 22 1 21 23
M  V30 23 2 22 24
M  V30 24 1 22 25
M  V30 25 1 23 26
M  V30 26 1 24 27
M  V30 27 2 25 28
M  V30 28 2 27 29
M  V30 29 1 28 30
M  V30 30 1 6 7
M  V30 31 1 16 17
M  V30 32 1 28 29
M  V30 END BOND
M  V30 END CTAB
M  END
>  <Molecule ChEMBL ID>
CHEMBL2331777

>  <Smiles>
CCNC(=O)c1cc(NS(=O)(=O)c2ccc(I)cc2)ccc1Oc1cncc(Cl)c1

>  <IC50_nM>
25

>  <Assay Description>
Displacement of [3H]-rosiglitazone from GST-tagged PPARgammaLBD (unknown origin) after 1 hr by scintillation proximity assay

$$$$
CHEMBL2338474
Actelion Java MolfileCreator 2.0

  0  0  0  0  0  0              0 V3000
M  V30 BEGIN CTAB
M  V30 COUNTS 34 37 0 0 0
M  V30 BEGIN ATOM
M  V30 1 Cl 7.7942 -0.75 0.0 0
M  V30 2 C 6.4951 0.0 0.0 0
M  V30 3 C 6.4951 1.5 0.0 0
M  V30 4 C 5.1961 -0.75 0.0 0
M  V30 5 O 7.7942 2.25 0.0 0
M  V30 6 C 5.1961 2.25 0.0 0
M  V30 7 C 3.8971 0.0 0.0 0
M  V30 8 C 7.7942 3.75 0.0 0
M  V30 9 Cl 5.1961 3.75 0.0 0
M  V30 10 C 3.8971 1.5 0.0 0
M  V30 11 N 2.598 -0.75 0.0 0
M  V30 12 C 9.0932 4.5 0.0 0
M  V30 13 C 6.4951 4.5 0.0 0
M  V30 14 S 1.299 0.0 0.0 0
M  V30 15 N 9.0932 6.0 0.0 0
M  V30 16 C 6.4951 6.0 0.0 0
M  V30 17 O 2.049 1.299 0.0 0
M  V30 18 O 0.549 1.299 0.0 0
M  V30 19 C 0.0 -0.75 0.0 0
M  V30 20 C 7.7942 6.75 0.0 0
M  V30 21 C 5.1961 6.75 0.0 0
M  V30 22 C -1.299 0.0 0.0 0
M  V30 23 C 0.0 -2.25 0.0 0
M  V30 24 C 7.7942 8.25 0.0 0
M  V30 25 C 5.1961 8.25 0.0 0
M  V30 26 Cl -1.299 1.5 0.0 0
M  V30 27 C -2.598 -0.75 0.0 0
M  V30 28 C -1.299 -3.0 0.0 0
M  V30 29 C 6.4951 9.0 0.0 0
M  V30 30 C -2.598 -2.25 0.0 0
M  V30 31 C -3.8971 -3.0 0.0 0
M  V30 32 F -3.1471 -4.299 0.0 0
M  V30 33 F -5.1961 -3.75 0.0 0
M  V30 34 F -4.6471 -1.7009 0.0 0
M  V30 END ATOM
M  V30 BEGIN BOND
M  V30 1 1 1 2
M  V30 2 2 2 3
M  V30 3 1 2 4
M  V30 4 1 3 5
M  V30 5 1 3 6
M  V30 6 2 4 7
M  V30 7 1 5 8
M  V30 8 1 6 9
M  V30 9 2 6 10
M  V30 10 1 7 11
M  V30 11 1 8 12
M  V30 12 2 8 13
M  V30 13 1 11 14
M  V30 14 2 12 15
M  V30 15 1 13 16
M  V30 16 2 14 17
M  V30 17 2 14 18
M  V30 18 1 14 19
M  V30 19 1 15 20
M  V30 20 2 16 21
M  V30 21 2 19 22
M  V30 22 1 19 23
M  V30 23 2 20 24
M  V30 24 1 21 25
M  V30 25 1 22 26
M  V30 26 1 22 27
M  V30 27 2 23 28
M  V30 28 1 24 29
M  V30 29 2 27 30
M  V30 30 1 30 31
M  V30 31 1 31 32
M  V30 32 1 31 33
M  V30 33 1 31 34
M  V30 34 1 7 10
M  V30 35 1 16 20
M  V30 36 2 25 29
M  V30 37 1 28 30
M  V30 END BOND
M  V30 END CTAB
M  END
>  <Molecule ChEMBL ID>
CHEMBL2338474

>  <Smiles>
O=S(=O)(Nc1cc(Cl)c(Oc2cnc3ccccc3c2)c(Cl)c1)c1ccc(C(F)(F)F)cc1Cl

>  <IC50_nM>
25

>  <Assay Description>
Displacement of [3H]-rosiglitazone from GST-tagged PPARgammaLBD (unknown origin) after 1 hr by scintillation proximity assay

$$$$
CHEMBL2331785
Actelion Java MolfileCreator 2.0

  0  0  0  0  0  0              0 V3000
M  V30 BEGIN CTAB
M  V30 COUNTS 32 34 0 0 0
M  V30 BEGIN ATOM
M  V30 1 Cl 10.3923 2.25 0.0 0
M  V30 2 C 11.6913 1.5 0.0 0
M  V30 3 C 11.6913 0.0 0.0 0
M  V30 4 C 12.9903 2.25 0.0 0
M  V30 5 S 10.3923 -0.75 0.0 0
M  V30 6 C 12.9903 -0.75 0.0 0
M  V30 7 C 14.2894 1.5 0.0 0
M  V30 8 O 9.6423 -2.049 0.0 0
M  V30 9 O 11.1423 -2.049 0.0 0
M  V30 10 N 9.0932 0.0 0.0 0
M  V30 11 C 14.2894 0.0 0.0 0
M  V30 12 Cl 15.5884 2.25 0.0 0
M  V30 13 C 7.7942 -0.75 0.0 0
M  V30 14 C 15.5884 -0.75 0.0 0
M  V30 15 C 6.4951 0.0 0.0 0
M  V30 16 C 7.7942 -2.25 0.0 0
M  V30 17 C 5.1961 -0.75 0.0 0
M  V30 18 C 6.4951 -3.0 0.0 0
M  V30 19 C 5.1961 -2.25 0.0 0
M  V30 20 C 3.8971 0.0 0.0 0
M  V30 21 O 3.8971 -3.0 0.0 0
M  V30 22 O 3.8971 1.5 0.0 0
M  V30 23 N 2.598 -0.75 0.0 0
M  V30 24 C 3.8971 -4.5 0.0 0
M  V30 25 C 1.299 0.0 0.0 0
M  V30 26 C 2.598 -5.25 0.0 0
M  V30 27 C 5.1961 -5.25 0.0 0
M  V30 28 C 0.0 -0.75 0.0 0
M  V30 29 N 2.598 -6.75 0.0 0
M  V30 30 C 5.1961 -6.75 0.0 0
M  V30 31 C 3.8971 -7.5 0.0 0
M  V30 32 Cl 6.4951 -7.5 0.0 0
M  V30 END ATOM
M  V30 BEGIN BOND
M  V30 1 1 1 2
M  V30 2 2 2 3
M  V30 3 1 2 4
M  V30 4 1 3 5
M  V30 5 1 3 6
M  V30 6 2 4 7
M  V30 7 2 5 8
M  V30 8 2 5 9
M  V30 9 1 5 10
M  V30 10 2 6 11
M  V30 11 1 7 12
M  V30 12 1 10 13
M  V30 13 1 11 14
M  V30 14 2 13 15
M  V30 15 1 13 16
M  V30 16 1 15 17
M  V30 17 2 16 18
M  V30 18 2 17 19
M  V30 19 1 17 20
M  V30 20 1 19 21
M  V30 21 2 20 22
M  V30 22 1 20 23
M  V30 23 1 21 24
M  V30 24 1 23 25
M  V30 25 2 24 26
M  V30 26 1 24 27
M  V30 27 1 25 28
M  V30 28 1 26 29
M  V30 29 2 27 30
M  V30 30 2 29 31
M  V30 31 1 30 32
M  V30 32 1 7 11
M  V30 33 1 18 19
M  V30 34 1 30 31
M  V30 END BOND
M  V30 END CTAB
M  END
>  <Molecule ChEMBL ID>
CHEMBL2331785

>  <Smiles>
CCNC(=O)c1cc(NS(=O)(=O)c2cc(C)c(Cl)cc2Cl)ccc1Oc1cncc(Cl)c1

>  <IC50_nM>
25

>  <Assay Description>
Displacement of [3H]-rosiglitazone from GST-tagged PPARgammaLBD (unknown origin) after 1 hr by scintillation proximity assay

$$$$
CHEMBL3699360
Actelion Java MolfileCreator 2.0

  0  0  0  0  0  0              0 V3000
M  V30 BEGIN CTAB
M  V30 COUNTS 42 47 0 0 0
M  V30 BEGIN ATOM
M  V30 1 O 11.8592 -3.5669 0.0 0
M  V30 2 C 10.8811 -3.7748 0.0 0
M  V30 3 O 10.212 -3.0316 0.0 0
M  V30 4 C 10.5721 -4.7258 0.0 0
M  V30 5 C 9.5939 -4.9337 0.0 0
M  V30 6 C 11.2412 -5.469 0.0 0
M  V30 7 C 8.9248 -4.1906 0.0 0
M  V30 8 C 9.2849 -5.8848 0.0 0
M  V30 9 C 10.9322 -6.42 0.0 0
M  V30 10 C 9.2338 -3.2395 0.0 0
M  V30 11 C 7.9466 -4.3985 0.0 0
M  V30 12 C 9.954 -6.6279 0.0 0
M  V30 13 C 8.5647 -2.4964 0.0 0
M  V30 14 C 7.2775 -3.6554 0.0 0
M  V30 15 C 7.5865 -2.7043 0.0 0
M  V30 16 C 6.9174 -1.9612 0.0 0
M  V30 17 N 5.9392 -2.1691 0.0 0
M  V30 18 C 5.1961 -1.4999 0.0 0
M  V30 19 C 5.5325 -3.0826 0.0 0
M  V30 20 C 4.3301 -1.9999 0.0 0
M  V30 21 C 5.1961 -0.4999 0.0 0
M  V30 22 C 4.538 -2.9781 0.0 0
M  V30 23 C 6.0325 -3.9487 0.0 0
M  V30 24 C 3.4641 -1.5 0.0 0
M  V30 25 C 4.3301 0.0 0.0 0
M  V30 26 C 3.8689 -3.7212 0.0 0
M  V30 27 C 3.4641 -0.5 0.0 0
M  V30 28 C 2.598 0.0 0.0 0
M  V30 29 O 2.598 1.0 0.0 0
M  V30 30 N 1.732 -0.5 0.0 0
M  V30 31 C 0.866 0.0 0.0 0 CFG=2
M  V30 32 C 0.866 1.0 0.0 0
M  V30 33 C 0.0 -0.5 0.0 0
M  V30 34 O 1.732 1.4999 0.0 0
M  V30 35 C 0.0 1.4999 0.0 0
M  V30 36 C 1.732 2.5 0.0 0
M  V30 37 O 0.0 2.5 0.0 0
M  V30 38 C 0.866 3.0 0.0 0
M  V30 39 C 2.598 2.9999 0.0 0
M  V30 40 C 0.866 4.0 0.0 0
M  V30 41 C 2.598 4.0 0.0 0
M  V30 42 C 1.732 4.5 0.0 0
M  V30 END ATOM
M  V30 BEGIN BOND
M  V30 1 2 1 2
M  V30 2 1 2 3
M  V30 3 1 2 4
M  V30 4 2 4 5
M  V30 5 1 4 6
M  V30 6 1 5 7
M  V30 7 1 5 8
M  V30 8 2 6 9
M  V30 9 2 7 10
M  V30 10 1 7 11
M  V30 11 2 8 12
M  V30 12 1 10 13
M  V30 13 2 11 14
M  V30 14 2 13 15
M  V30 15 1 15 16
M  V30 16 1 16 17
M  V30 17 1 17 18
M  V30 18 1 17 19
M  V30 19 2 18 20
M  V30 20 1 18 21
M  V30 21 2 19 22
M  V30 22 1 19 23
M  V30 23 1 20 24
M  V30 24 2 21 25
M  V30 25 1 22 26
M  V30 26 2 24 27
M  V30 27 1 27 28
M  V30 28 2 28 29
M  V30 29 1 28 30
M  V30 30 1 30 31
M  V30 31 1 31 32
M  V30 32 1 31 33 CFG=1
M  V30 33 1 32 34
M  V30 34 1 32 35
M  V30 35 1 34 36
M  V30 36 1 35 37
M  V30 37 2 36 38
M  V30 38 1 36 39
M  V30 39 1 38 40
M  V30 40 2 39 41
M  V30 41 2 40 42
M  V30 42 1 9 12
M  V30 43 1 14 15
M  V30 44 1 20 22
M  V30 45 1 25 27
M  V30 46 1 37 38
M  V30 47 1 41 42
M  V30 END BOND
M  V30 BEGIN COLLECTION
M  V30 MDLV30/STEABS ATOMS=(1 31)
M  V30 END COLLECTION
M  V30 END CTAB
M  END
>  <Molecule ChEMBL ID>
CHEMBL3699360

>  <Smiles>
Cc1c(C)n(Cc2ccc(-c3ccccc3C(=O)O)cc2)c2ccc(C(=O)N[C@@H](C)C3COc4ccccc4O3)cc12

>  <IC50_nM>
25

>  <Assay Description>
Lanthascreen Competitive Binding Assay: The assay was performed according to manufacturer protocol. A mixture of nM GST-PPARG-LBD, 5 nM Tb-GST-antibody, 5 nM Fluormone Pan-PPAR Green, and serial dilutions of the experimental compound, beginning at 10 ׬M downwards, was added to wells of black 384-well low-volume plates (Greiner) to a total volume of 18 ׬L. All dilutions were made in TR-FRET assay buffer C. DMSO at 2% final concentration was used as a no-ligand control. Experiment was performed in triplicate, and incubated for 2 hours in the dark prior to assay read in Perkin Elmer ViewLux ultra HTS microplate reader. FRET signal was measured by excitation at 340 nm and emission at 520 nm for fluorescein and 490 nm for terbium. Fold change over DMSO was calculated using GraphPad Prism Software (La Jolla, Calif.) by calculating 520 nm/490 nm ratio. Graphs were plotted as fold change of FRET signal for compound treatment over DMSO-only control.

$$$$
CHEMBL3695827
Actelion Java MolfileCreator 2.0

  0  0  0  0  0  0              0 V3000
M  V30 BEGIN CTAB
M  V30 COUNTS 35 39 0 0 0
M  V30 BEGIN ATOM
M  V30 1 O 9.4516 5.7369 0.0 0
M  V30 2 C 9.1426 4.7859 0.0 0
M  V30 3 O 8.1645 4.578 0.0 0
M  V30 4 C 9.8118 4.0427 0.0 0
M  V30 5 C 9.5027 3.0917 0.0 0
M  V30 6 C 10.7899 4.2506 0.0 0
M  V30 7 C 8.5246 2.8838 0.0 0
M  V30 8 C 10.1719 2.3485 0.0 0
M  V30 9 C 11.459 3.5075 0.0 0
M  V30 10 C 7.8555 3.6269 0.0 0
M  V30 11 C 8.2156 1.9327 0.0 0
M  V30 12 C 11.15 2.5564 0.0 0
M  V30 13 C 6.8773 3.419 0.0 0
M  V30 14 C 7.2374 1.7248 0.0 0
M  V30 15 C 6.5683 2.4679 0.0 0
M  V30 16 C 5.5902 2.26 0.0 0
M  V30 17 N 5.2811 1.309 0.0 0
M  V30 18 C 4.3301 1.0 0.0 0
M  V30 19 C 5.8689 0.5 0.0 0
M  V30 20 C 4.3301 0.0 0.0 0
M  V30 21 C 3.4641 1.5 0.0 0
M  V30 22 C 5.2811 -0.309 0.0 0
M  V30 23 C 6.8689 0.5 0.0 0
M  V30 24 C 3.4641 -0.4999 0.0 0
M  V30 25 C 2.598 0.9999 0.0 0
M  V30 26 C 5.5902 -1.26 0.0 0
M  V30 27 C 2.598 0.0 0.0 0
M  V30 28 C 1.732 -0.5 0.0 0
M  V30 29 O 1.732 -1.5 0.0 0
M  V30 30 N 0.866 0.0 0.0 0
M  V30 31 C 0.0 -0.5 0.0 0
M  V30 32 C -0.9135 -0.0932 0.0 0
M  V30 33 C -0.1045 -1.4945 0.0 0
M  V30 34 C -1.5826 -0.8364 0.0 0
M  V30 35 C -1.0826 -1.7024 0.0 0
M  V30 END ATOM
M  V30 BEGIN BOND
M  V30 1 2 1 2
M  V30 2 1 2 3
M  V30 3 1 2 4
M  V30 4 2 4 5
M  V30 5 1 4 6
M  V30 6 1 5 7
M  V30 7 1 5 8
M  V30 8 2 6 9
M  V30 9 2 7 10
M  V30 10 1 7 11
M  V30 11 2 8 12
M  V30 12 1 10 13
M  V30 13 2 11 14
M  V30 14 2 13 15
M  V30 15 1 15 16
M  V30 16 1 16 17
M  V30 17 1 17 18
M  V30 18 1 17 19
M  V30 19 2 18 20
M  V30 20 1 18 21
M  V30 21 2 19 22
M  V30 22 1 19 23
M  V30 23 1 20 24
M  V30 24 2 21 25
M  V30 25 1 22 26
M  V30 26 2 24 27
M  V30 27 1 27 28
M  V30 28 2 28 29
M  V30 29 1 28 30
M  V30 30 1 30 31
M  V30 31 1 31 32
M  V30 32 1 31 33
M  V30 33 1 32 34
M  V30 34 1 33 35
M  V30 35 1 9 12
M  V30 36 1 14 15
M  V30 37 1 20 22
M  V30 38 1 25 27
M  V30 39 1 34 35
M  V30 END BOND
M  V30 END CTAB
M  END
>  <Molecule ChEMBL ID>
CHEMBL3695827

>  <Smiles>
Cc1c(C)n(Cc2ccc(-c3ccccc3C(=O)O)cc2)c2ccc(C(=O)NC3CCCC3)cc12

>  <IC50_nM>
25

>  <Assay Description>
Lanthascreen Competitive Binding Assay: The assay was performed according to manufacturer protocol. A mixture of nM GST-PPARG-LBD, 5 nM Tb-GST-antibody, 5 nM Fluormone Pan-PPAR Green, and serial dilutions of the experimental compound, beginning at 10 ׬M downwards, was added to wells of black 384-well low-volume plates (Greiner) to a total volume of 18 ׬L. All dilutions were made in TR-FRET assay buffer C. DMSO at 2% final concentration was used as a no-ligand control. Experiment was performed in triplicate, and incubated for 2 hours in the dark prior to assay read in Perkin Elmer ViewLux ultra HTS microplate reader. FRET signal was measured by excitation at 340 nm and emission at 520 nm for fluorescein and 490 nm for terbium. Fold change over DMSO was calculated using GraphPad Prism Software (La Jolla, Calif.) by calculating 520 nm/490 nm ratio. Graphs were plotted as fold change of FRET signal for compound treatment over DMSO-only control.

$$$$
CHEMBL107367
Actelion Java MolfileCreator 2.0

  0  0  0  0  0  0              0 V3000
M  V30 BEGIN CTAB
M  V30 COUNTS 41 45 0 0 0
M  V30 BEGIN ATOM
M  V30 1 O 5.1961 2.25 0.0 0
M  V30 2 C 6.4951 1.4999 0.0 0
M  V30 3 C 6.4951 0.0 0.0 0
M  V30 4 C 7.7942 2.2499 0.0 0
M  V30 5 C 5.1961 -0.75 0.0 0
M  V30 6 C 7.7942 -0.75 0.0 0
M  V30 7 C 9.0932 1.4999 0.0 0
M  V30 8 C 7.7942 3.7499 0.0 0
M  V30 9 N 3.8971 0.0 0.0 0
M  V30 10 C 5.1961 -2.25 0.0 0
M  V30 11 C 7.7942 -2.25 0.0 0
M  V30 12 C 10.3923 2.2499 0.0 0
M  V30 13 C 9.0932 4.4999 0.0 0
M  V30 14 C 2.598 -0.75 0.0 0 CFG=2
M  V30 15 C 6.4951 -3.0 0.0 0
M  V30 16 C 10.3923 3.7499 0.0 0
M  V30 17 C 2.598 -2.25 0.0 0
M  V30 18 C 1.299 0.0 0.0 0
M  V30 19 O 1.299 -3.0 0.0 0
M  V30 20 O 3.8971 -3.0 0.0 0
M  V30 21 C 0.0 -0.75 0.0 0
M  V30 22 C -1.299 0.0 0.0 0
M  V30 23 C 0.0 -2.2499 0.0 0
M  V30 24 C -2.598 -0.7499 0.0 0
M  V30 25 C -1.299 -2.9999 0.0 0
M  V30 26 C -2.598 -2.2499 0.0 0
M  V30 27 O -3.8971 -2.9999 0.0 0
M  V30 28 C -3.8971 -4.4999 0.0 0
M  V30 29 C -5.1961 -5.2499 0.0 0
M  V30 30 C -5.1961 -6.7499 0.0 0
M  V30 31 N -6.4096 -7.6316 0.0 0
M  V30 32 C -3.9826 -7.6316 0.0 0
M  V30 33 C -5.9461 -9.0582 0.0 0
M  V30 34 O -4.4461 -9.0582 0.0 0
M  V30 35 C -2.556 -7.1681 0.0 0
M  V30 36 C -6.8278 -10.2717 0.0 0
M  V30 37 C -8.3196 -10.1149 0.0 0
M  V30 38 C -6.2177 -11.6421 0.0 0
M  V30 39 C -9.2012 -11.3285 0.0 0
M  V30 40 C -7.0994 -12.8556 0.0 0
M  V30 41 C -8.5911 -12.6988 0.0 0
M  V30 END ATOM
M  V30 BEGIN BOND
M  V30 1 2 1 2
M  V30 2 1 2 3
M  V30 3 1 2 4
M  V30 4 2 3 5
M  V30 5 1 3 6
M  V30 6 2 4 7
M  V30 7 1 4 8
M  V30 8 1 5 9
M  V30 9 1 5 10
M  V30 10 2 6 11
M  V30 11 1 7 12
M  V30 12 2 8 13
M  V30 13 1 14 9 CFG=3
M  V30 14 2 10 15
M  V30 15 2 12 16
M  V30 16 1 14 17
M  V30 17 1 14 18
M  V30 18 2 17 19
M  V30 19 1 17 20
M  V30 20 1 18 21
M  V30 21 2 21 22
M  V30 22 1 21 23
M  V30 23 1 22 24
M  V30 24 2 23 25
M  V30 25 2 24 26
M  V30 26 1 26 27
M  V30 27 1 27 28
M  V30 28 1 28 29
M  V30 29 1 29 30
M  V30 30 1 30 31
M  V30 31 2 30 32
M  V30 32 2 31 33
M  V30 33 1 32 34
M  V30 34 1 32 35
M  V30 35 1 33 36
M  V30 36 2 36 37
M  V30 37 1 36 38
M  V30 38 1 37 39
M  V30 39 2 38 40
M  V30 40 2 39 41
M  V30 41 1 11 15
M  V30 42 1 13 16
M  V30 43 1 25 26
M  V30 44 1 33 34
M  V30 45 1 40 41
M  V30 END BOND
M  V30 BEGIN COLLECTION
M  V30 MDLV30/STEABS ATOMS=(1 14)
M  V30 END COLLECTION
M  V30 END CTAB
M  END
>  <Molecule ChEMBL ID>
CHEMBL107367

>  <Smiles>
Cc1oc(-c2ccccc2)nc1CCOc1ccc(C[C@H](Nc2ccccc2C(=O)c2ccccc2)C(=O)O)cc1

>  <IC50_nM>
25

>  <Assay Description>
Displacement of tritium labeled ligand from human PPARgamma by SPA assay

$$$$
CHEMBL3678140
Actelion Java MolfileCreator 2.0

  0  0  0  0  0  0              0 V3000
M  V30 BEGIN CTAB
M  V30 COUNTS 40 43 0 0 0
M  V30 BEGIN ATOM
M  V30 1 Cl 9.0932 0.0 0.0 0
M  V30 2 C 7.7942 -0.75 0.0 0
M  V30 3 C 6.4951 0.0 0.0 0
M  V30 4 C 7.7942 -2.2499 0.0 0
M  V30 5 C 5.1961 -0.75 0.0 0
M  V30 6 C 6.4951 -3.0 0.0 0
M  V30 7 O 3.8971 0.0 0.0 0
M  V30 8 C 5.1961 -2.2499 0.0 0
M  V30 9 C 6.4951 -4.5 0.0 0
M  V30 10 C 2.598 -0.75 0.0 0 CFG=2
M  V30 11 N 7.7942 -5.25 0.0 0
M  V30 12 C 1.299 0.0 0.0 0
M  V30 13 C 2.598 -2.25 0.0 0
M  V30 14 C 7.951 -6.7417 0.0 0
M  V30 15 C 9.1645 -4.6398 0.0 0
M  V30 16 O 1.299 1.5 0.0 0
M  V30 17 O 0.0 -0.75 0.0 0
M  V30 18 C 9.4182 -7.0536 0.0 0
M  V30 19 C 6.9473 -7.8565 0.0 0
M  V30 20 C 10.1682 -5.7546 0.0 0
M  V30 21 C 9.4764 -3.1726 0.0 0
M  V30 22 C 9.8817 -8.4802 0.0 0
M  V30 23 C 7.4108 -9.283 0.0 0
M  V30 24 C 11.66 -5.5978 0.0 0
M  V30 25 C 8.878 -9.5949 0.0 0
M  V30 26 C 9.3415 -11.0215 0.0 0
M  V30 27 O 8.3379 -12.1362 0.0 0
M  V30 28 N 10.8088 -11.3334 0.0 0
M  V30 29 C 11.2723 -12.7599 0.0 0 CFG=2
M  V30 30 C 10.2686 -13.8747 0.0 0
M  V30 31 C 12.7395 -13.0718 0.0 0
M  V30 32 C 8.8014 -13.5628 0.0 0
M  V30 33 C 10.7321 -15.3012 0.0 0
M  V30 34 C 7.7977 -14.6775 0.0 0
M  V30 35 C 9.7284 -16.416 0.0 0
M  V30 36 C 8.2612 -16.1041 0.0 0
M  V30 37 C 7.2575 -17.2188 0.0 0
M  V30 38 C 8.3722 -18.2225 0.0 0
M  V30 39 C 6.2538 -18.3335 0.0 0
M  V30 40 C 6.1428 -16.2151 0.0 0
M  V30 END ATOM
M  V30 BEGIN BOND
M  V30 1 1 1 2
M  V30 2 2 2 3
M  V30 3 1 2 4
M  V30 4 1 3 5
M  V30 5 2 4 6
M  V30 6 1 5 7
M  V30 7 2 5 8
M  V30 8 1 6 9
M  V30 9 1 7 10
M  V30 10 1 9 11
M  V30 11 1 10 12
M  V30 12 1 10 13 CFG=1
M  V30 13 1 11 14
M  V30 14 1 11 15
M  V30 15 2 12 16
M  V30 16 1 12 17
M  V30 17 2 14 18
M  V30 18 1 14 19
M  V30 19 2 15 20
M  V30 20 1 15 21
M  V30 21 1 18 22
M  V30 22 2 19 23
M  V30 23 1 20 24
M  V30 24 2 22 25
M  V30 25 1 25 26
M  V30 26 2 26 27
M  V30 27 1 26 28
M  V30 28 1 28 29
M  V30 29 1 29 30
M  V30 30 1 29 31 CFG=1
M  V30 31 2 30 32
M  V30 32 1 30 33
M  V30 33 1 32 34
M  V30 34 2 33 35
M  V30 35 2 34 36
M  V30 36 1 36 37
M  V30 37 1 37 38
M  V30 38 1 37 39
M  V30 39 1 37 40
M  V30 40 1 6 8
M  V30 41 1 18 20
M  V30 42 1 23 25
M  V30 43 1 35 36
M  V30 END BOND
M  V30 BEGIN COLLECTION
M  V30 MDLV30/STEABS ATOMS=(2 10 29)
M  V30 END COLLECTION
M  V30 END CTAB
M  END
>  <Molecule ChEMBL ID>
CHEMBL3678140

>  <Smiles>
Cc1c(C)n(Cc2cc(Cl)cc(O[C@@H](C)C(=O)O)c2)c2ccc(C(=O)N[C@@H](C)c3ccc(C(C)(C)C)cc3)cc12

>  <IC50_nM>
25

>  <Assay Description>
Lanthascreen Competitive Binding Assay: The assay was performed according to manufacturer protocol. A mixture of 5 nM GST-PPARG-LBD, 5 nM Tb-GST-antibody, 5 nM Fluormone Pan- PPAR Green, and serial dilutions of the experimental compound, beginning at 10 ׬� downwards, was added to wells of black 384-well low- volume plates (Greiner) to a total volume of 18 xL. All dilutions were made in TR-FRET assay buffer C. DMSO at 2% final concentration was used as a no-ligand control. Experiment was performed in triplicate, and incubated for 2 hours in the dark prior to assay read in Perkin Elmer ViewLux ultra HTS microplate reader. FRET signal was measured by excitation at 340 nm and emission at 520 nm for fluorescein and 490 nm for terbium.

$$$$
CHEMBL3695813
Actelion Java MolfileCreator 2.0

  0  0  0  0  0  0              0 V3000
M  V30 BEGIN CTAB
M  V30 COUNTS 43 48 0 0 0
M  V30 BEGIN ATOM
M  V30 1 O 11.8592 -3.5669 0.0 0
M  V30 2 C 10.8811 -3.7748 0.0 0
M  V30 3 O 10.212 -3.0316 0.0 0
M  V30 4 C 10.5721 -4.7258 0.0 0
M  V30 5 C 9.5939 -4.9337 0.0 0
M  V30 6 C 11.2412 -5.469 0.0 0
M  V30 7 C 8.9248 -4.1906 0.0 0
M  V30 8 C 9.2849 -5.8848 0.0 0
M  V30 9 C 10.9322 -6.42 0.0 0
M  V30 10 C 9.2338 -3.2395 0.0 0
M  V30 11 C 7.9466 -4.3985 0.0 0
M  V30 12 C 9.954 -6.6279 0.0 0
M  V30 13 C 8.5647 -2.4964 0.0 0
M  V30 14 C 7.2775 -3.6554 0.0 0
M  V30 15 C 7.5865 -2.7043 0.0 0
M  V30 16 C 6.9174 -1.9612 0.0 0
M  V30 17 N 5.9392 -2.1691 0.0 0
M  V30 18 C 5.1961 -1.4999 0.0 0
M  V30 19 C 5.5325 -3.0826 0.0 0
M  V30 20 C 4.3301 -1.9999 0.0 0
M  V30 21 C 5.1961 -0.4999 0.0 0
M  V30 22 C 4.538 -2.9781 0.0 0
M  V30 23 C 6.0325 -3.9487 0.0 0
M  V30 24 C 3.4641 -1.5 0.0 0
M  V30 25 C 4.3301 0.0 0.0 0
M  V30 26 C 3.8689 -3.7212 0.0 0
M  V30 27 C 3.4641 -0.5 0.0 0
M  V30 28 C 2.598 0.0 0.0 0
M  V30 29 O 2.598 1.0 0.0 0
M  V30 30 N 1.732 -0.5 0.0 0
M  V30 31 C 0.866 0.0 0.0 0
M  V30 32 C 0.866 1.0 0.0 0
M  V30 33 C 0.0 -0.5 0.0 0
M  V30 34 C 1.732 1.4999 0.0 0
M  V30 35 C 0.0 1.4999 0.0 0
M  V30 36 C -0.866 0.0 0.0 0
M  V30 37 C 0.0 -1.4999 0.0 0
M  V30 38 C 1.732 2.5 0.0 0
M  V30 39 C 0.0 2.5 0.0 0
M  V30 40 C -1.732 -0.4999 0.0 0
M  V30 41 C -0.866 -1.9999 0.0 0
M  V30 42 C 0.866 3.0 0.0 0
M  V30 43 C -1.732 -1.4999 0.0 0
M  V30 END ATOM
M  V30 BEGIN BOND
M  V30 1 2 1 2
M  V30 2 1 2 3
M  V30 3 1 2 4
M  V30 4 2 4 5
M  V30 5 1 4 6
M  V30 6 1 5 7
M  V30 7 1 5 8
M  V30 8 2 6 9
M  V30 9 2 7 10
M  V30 10 1 7 11
M  V30 11 2 8 12
M  V30 12 1 10 13
M  V30 13 2 11 14
M  V30 14 2 13 15
M  V30 15 1 15 16
M  V30 16 1 16 17
M  V30 17 1 17 18
M  V30 18 1 17 19
M  V30 19 2 18 20
M  V30 20 1 18 21
M  V30 21 2 19 22
M  V30 22 1 19 23
M  V30 23 1 20 24
M  V30 24 2 21 25
M  V30 25 1 22 26
M  V30 26 2 24 27
M  V30 27 1 27 28
M  V30 28 2 28 29
M  V30 29 1 28 30
M  V30 30 1 30 31
M  V30 31 1 31 32
M  V30 32 1 31 33
M  V30 33 2 32 34
M  V30 34 1 32 35
M  V30 35 2 33 36
M  V30 36 1 33 37
M  V30 37 1 34 38
M  V30 38 2 35 39
M  V30 39 1 36 40
M  V30 40 2 37 41
M  V30 41 2 38 42
M  V30 42 2 40 43
M  V30 43 1 9 12
M  V30 44 1 14 15
M  V30 45 1 20 22
M  V30 46 1 25 27
M  V30 47 1 39 42
M  V30 48 1 41 43
M  V30 END BOND
M  V30 END CTAB
M  END
>  <Molecule ChEMBL ID>
CHEMBL3695813

>  <Smiles>
Cc1c(C)n(Cc2ccc(-c3ccccc3C(=O)O)cc2)c2ccc(C(=O)NC(c3ccccc3)c3ccccc3)cc12

>  <IC50_nM>
26

>  <Assay Description>
Binding affinity to GST-tagged PPAR-gamma-LBD (unknown origin) after 2 hrs by Lantha screen assay using fluormone Pan-PPAR green probe

$$$$
CHEMBL3695813
Actelion Java MolfileCreator 2.0

  0  0  0  0  0  0              0 V3000
M  V30 BEGIN CTAB
M  V30 COUNTS 43 48 0 0 0
M  V30 BEGIN ATOM
M  V30 1 O 11.8592 -3.5669 0.0 0
M  V30 2 C 10.8811 -3.7748 0.0 0
M  V30 3 O 10.212 -3.0316 0.0 0
M  V30 4 C 10.5721 -4.7258 0.0 0
M  V30 5 C 9.5939 -4.9337 0.0 0
M  V30 6 C 11.2412 -5.469 0.0 0
M  V30 7 C 8.9248 -4.1906 0.0 0
M  V30 8 C 9.2849 -5.8848 0.0 0
M  V30 9 C 10.9322 -6.42 0.0 0
M  V30 10 C 9.2338 -3.2395 0.0 0
M  V30 11 C 7.9466 -4.3985 0.0 0
M  V30 12 C 9.954 -6.6279 0.0 0
M  V30 13 C 8.5647 -2.4964 0.0 0
M  V30 14 C 7.2775 -3.6554 0.0 0
M  V30 15 C 7.5865 -2.7043 0.0 0
M  V30 16 C 6.9174 -1.9612 0.0 0
M  V30 17 N 5.9392 -2.1691 0.0 0
M  V30 18 C 5.1961 -1.4999 0.0 0
M  V30 19 C 5.5325 -3.0826 0.0 0
M  V30 20 C 4.3301 -1.9999 0.0 0
M  V30 21 C 5.1961 -0.4999 0.0 0
M  V30 22 C 4.538 -2.9781 0.0 0
M  V30 23 C 6.0325 -3.9487 0.0 0
M  V30 24 C 3.4641 -1.5 0.0 0
M  V30 25 C 4.3301 0.0 0.0 0
M  V30 26 C 3.8689 -3.7212 0.0 0
M  V30 27 C 3.4641 -0.5 0.0 0
M  V30 28 C 2.598 0.0 0.0 0
M  V30 29 O 2.598 1.0 0.0 0
M  V30 30 N 1.732 -0.5 0.0 0
M  V30 31 C 0.866 0.0 0.0 0
M  V30 32 C 0.866 1.0 0.0 0
M  V30 33 C 0.0 -0.5 0.0 0
M  V30 34 C 1.732 1.4999 0.0 0
M  V30 35 C 0.0 1.4999 0.0 0
M  V30 36 C -0.866 0.0 0.0 0
M  V30 37 C 0.0 -1.4999 0.0 0
M  V30 38 C 1.732 2.5 0.0 0
M  V30 39 C 0.0 2.5 0.0 0
M  V30 40 C -1.732 -0.4999 0.0 0
M  V30 41 C -0.866 -1.9999 0.0 0
M  V30 42 C 0.866 3.0 0.0 0
M  V30 43 C -1.732 -1.4999 0.0 0
M  V30 END ATOM
M  V30 BEGIN BOND
M  V30 1 2 1 2
M  V30 2 1 2 3
M  V30 3 1 2 4
M  V30 4 2 4 5
M  V30 5 1 4 6
M  V30 6 1 5 7
M  V30 7 1 5 8
M  V30 8 2 6 9
M  V30 9 2 7 10
M  V30 10 1 7 11
M  V30 11 2 8 12
M  V30 12 1 10 13
M  V30 13 2 11 14
M  V30 14 2 13 15
M  V30 15 1 15 16
M  V30 16 1 16 17
M  V30 17 1 17 18
M  V30 18 1 17 19
M  V30 19 2 18 20
M  V30 20 1 18 21
M  V30 21 2 19 22
M  V30 22 1 19 23
M  V30 23 1 20 24
M  V30 24 2 21 25
M  V30 25 1 22 26
M  V30 26 2 24 27
M  V30 27 1 27 28
M  V30 28 2 28 29
M  V30 29 1 28 30
M  V30 30 1 30 31
M  V30 31 1 31 32
M  V30 32 1 31 33
M  V30 33 2 32 34
M  V30 34 1 32 35
M  V30 35 2 33 36
M  V30 36 1 33 37
M  V30 37 1 34 38
M  V30 38 2 35 39
M  V30 39 1 36 40
M  V30 40 2 37 41
M  V30 41 2 38 42
M  V30 42 2 40 43
M  V30 43 1 9 12
M  V30 44 1 14 15
M  V30 45 1 20 22
M  V30 46 1 25 27
M  V30 47 1 39 42
M  V30 48 1 41 43
M  V30 END BOND
M  V30 END CTAB
M  END
>  <Molecule ChEMBL ID>
CHEMBL3695813

>  <Smiles>
Cc1c(C)n(Cc2ccc(-c3ccccc3C(=O)O)cc2)c2ccc(C(=O)NC(c3ccccc3)c3ccccc3)cc12

>  <IC50_nM>
26

>  <Assay Description>
Lanthascreen Competitive Binding Assay: The assay was performed according to manufacturer protocol. A mixture of nM GST-PPARG-LBD, 5 nM Tb-GST-antibody, 5 nM Fluormone Pan-PPAR Green, and serial dilutions of the experimental compound, beginning at 10 ׬M downwards, was added to wells of black 384-well low-volume plates (Greiner) to a total volume of 18 ׬L. All dilutions were made in TR-FRET assay buffer C. DMSO at 2% final concentration was used as a no-ligand control. Experiment was performed in triplicate, and incubated for 2 hours in the dark prior to assay read in Perkin Elmer ViewLux ultra HTS microplate reader. FRET signal was measured by excitation at 340 nm and emission at 520 nm for fluorescein and 490 nm for terbium. Fold change over DMSO was calculated using GraphPad Prism Software (La Jolla, Calif.) by calculating 520 nm/490 nm ratio. Graphs were plotted as fold change of FRET signal for compound treatment over DMSO-only control.

$$$$
CHEMBL370152
Actelion Java MolfileCreator 2.0

  0  0  0  0  0  0              0 V3000
M  V30 BEGIN CTAB
M  V30 COUNTS 28 31 0 0 0
M  V30 BEGIN ATOM
M  V30 1 Cl 4.2417 2.0167 0.0 0
M  V30 2 C 3.9327 1.0657 0.0 0
M  V30 3 C 2.9546 0.8577 0.0 0
M  V30 4 C 4.6018 0.3225 0.0 0
M  V30 5 C 2.6455 -0.0932 0.0 0
M  V30 6 C 4.2928 -0.6284 0.0 0
M  V30 7 C 1.732 -0.5 0.0 0
M  V30 8 C 3.3147 -0.8364 0.0 0
M  V30 9 S 0.866 0.0 0.0 0
M  V30 10 C 1.8365 -1.4945 0.0 0
M  V30 11 N 2.8147 -1.7024 0.0 0
M  V30 12 C 0.866 0.9999 0.0 0
M  V30 13 C 1.0934 -2.1636 0.0 0
M  V30 14 C 3.2214 -2.6159 0.0 0
M  V30 15 C 0.0 1.4999 0.0 0
M  V30 16 C 1.732 1.5 0.0 0
M  V30 17 O 0.1423 -1.8546 0.0 0
M  V30 18 O 1.3013 -3.1418 0.0 0
M  V30 19 C 4.2159 -2.7205 0.0 0
M  V30 20 C 0.0 2.4999 0.0 0
M  V30 21 C 1.732 2.5 0.0 0
M  V30 22 C 4.6227 -3.634 0.0 0
M  V30 23 C 4.8037 -1.9114 0.0 0
M  V30 24 C 0.866 3.0 0.0 0
M  V30 25 C 5.6172 -3.7385 0.0 0
M  V30 26 C 5.7982 -2.016 0.0 0
M  V30 27 C 6.205 -2.9295 0.0 0
M  V30 28 Cl 7.1995 -3.034 0.0 0
M  V30 END ATOM
M  V30 BEGIN BOND
M  V30 1 1 1 2
M  V30 2 2 2 3
M  V30 3 1 2 4
M  V30 4 1 3 5
M  V30 5 2 4 6
M  V30 6 1 5 7
M  V30 7 2 5 8
M  V30 8 1 7 9
M  V30 9 2 7 10
M  V30 10 1 8 11
M  V30 11 1 9 12
M  V30 12 1 10 13
M  V30 13 1 11 14
M  V30 14 2 12 15
M  V30 15 1 12 16
M  V30 16 2 13 17
M  V30 17 1 13 18
M  V30 18 1 14 19
M  V30 19 1 15 20
M  V30 20 2 16 21
M  V30 21 2 19 22
M  V30 22 1 19 23
M  V30 23 2 20 24
M  V30 24 1 22 25
M  V30 25 2 23 26
M  V30 26 2 25 27
M  V30 27 1 27 28
M  V30 28 1 6 8
M  V30 29 1 10 11
M  V30 30 1 21 24
M  V30 31 1 26 27
M  V30 END BOND
M  V30 END CTAB
M  END
>  <Molecule ChEMBL ID>
CHEMBL370152

>  <Smiles>
O=C(O)c1c(Sc2ccccc2)c2cc(Cl)ccc2n1Cc1ccc(Cl)cc1

>  <IC50_nM>
26

>  <Assay Description>
Inhibitory concentration against human peroxisome proliferator activated receptor gamma in SPA assay

$$$$
CHEMBL3699352
Actelion Java MolfileCreator 2.0

  0  0  0  0  0  0              0 V3000
M  V30 BEGIN CTAB
M  V30 COUNTS 41 45 0 0 0
M  V30 BEGIN ATOM
M  V30 1 F 6.0621 0.0 0.0 0
M  V30 2 C 5.1961 -0.5 0.0 0
M  V30 3 C 4.3301 0.0 0.0 0
M  V30 4 C 5.1961 -1.4999 0.0 0
M  V30 5 C 3.4641 -0.5 0.0 0
M  V30 6 C 4.3301 -1.9999 0.0 0
M  V30 7 C 3.4641 -1.4999 0.0 0
M  V30 8 C 2.598 0.0 0.0 0 CFG=1
M  V30 9 O 2.598 -2.0 0.0 0
M  V30 10 N 1.732 -0.5 0.0 0
M  V30 11 C 2.598 1.0 0.0 0
M  V30 12 C 2.598 -3.0 0.0 0
M  V30 13 C 0.866 0.0 0.0 0
M  V30 14 O 0.866 1.0 0.0 0
M  V30 15 C 0.0 -0.5 0.0 0
M  V30 16 C 0.0 -1.4999 0.0 0
M  V30 17 C -0.866 0.0 0.0 0
M  V30 18 C -0.866 -1.9999 0.0 0
M  V30 19 C -1.732 -0.4999 0.0 0
M  V30 20 C -1.732 -1.4999 0.0 0
M  V30 21 C -1.0739 -2.9781 0.0 0
M  V30 22 N -2.4751 -2.1691 0.0 0
M  V30 23 C -2.0684 -3.0826 0.0 0
M  V30 24 C -0.4048 -3.7212 0.0 0
M  V30 25 C -3.4533 -1.9612 0.0 0
M  V30 26 C -2.5684 -3.9487 0.0 0
M  V30 27 C -4.1224 -2.7043 0.0 0
M  V30 28 C -5.1006 -2.4964 0.0 0
M  V30 29 C -3.8134 -3.6554 0.0 0
M  V30 30 C -5.7697 -3.2395 0.0 0
M  V30 31 C -4.4825 -4.3985 0.0 0
M  V30 32 C -5.4607 -4.1906 0.0 0
M  V30 33 C -6.1298 -4.9337 0.0 0
M  V30 34 C -7.108 -4.7258 0.0 0
M  V30 35 C -5.8208 -5.8848 0.0 0
M  V30 36 C -7.417 -3.7748 0.0 0
M  V30 37 C -7.7771 -5.469 0.0 0
M  V30 38 C -6.4899 -6.6279 0.0 0
M  V30 39 O -6.7478 -3.0316 0.0 0
M  V30 40 O -8.3951 -3.5669 0.0 0
M  V30 41 C -7.4681 -6.42 0.0 0
M  V30 END ATOM
M  V30 BEGIN BOND
M  V30 1 1 1 2
M  V30 2 2 2 3
M  V30 3 1 2 4
M  V30 4 1 3 5
M  V30 5 2 4 6
M  V30 6 2 5 7
M  V30 7 1 5 8
M  V30 8 1 7 9
M  V30 9 1 8 10
M  V30 10 1 8 11 CFG=1
M  V30 11 1 9 12
M  V30 12 1 10 13
M  V30 13 2 13 14
M  V30 14 1 13 15
M  V30 15 2 15 16
M  V30 16 1 15 17
M  V30 17 1 16 18
M  V30 18 2 17 19
M  V30 19 2 18 20
M  V30 20 1 18 21
M  V30 21 1 20 22
M  V30 22 2 21 23
M  V30 23 1 21 24
M  V30 24 1 22 25
M  V30 25 1 23 26
M  V30 26 1 25 27
M  V30 27 2 27 28
M  V30 28 1 27 29
M  V30 29 1 28 30
M  V30 30 2 29 31
M  V30 31 2 30 32
M  V30 32 1 32 33
M  V30 33 2 33 34
M  V30 34 1 33 35
M  V30 35 1 34 36
M  V30 36 1 34 37
M  V30 37 2 35 38
M  V30 38 2 36 39
M  V30 39 1 36 40
M  V30 40 2 37 41
M  V30 41 1 6 7
M  V30 42 1 19 20
M  V30 43 1 22 23
M  V30 44 1 31 32
M  V30 45 1 38 41
M  V30 END BOND
M  V30 BEGIN COLLECTION
M  V30 MDLV30/STEABS ATOMS=(1 8)
M  V30 END COLLECTION
M  V30 END CTAB
M  END
>  <Molecule ChEMBL ID>
CHEMBL3699352

>  <Smiles>
COc1ccc(F)cc1[C@H](C)NC(=O)c1ccc2c(c1)c(C)c(C)n2Cc1ccc(-c2ccccc2C(=O)O)cc1

>  <IC50_nM>
26

>  <Assay Description>
Lanthascreen Competitive Binding Assay: The assay was performed according to manufacturer protocol. A mixture of nM GST-PPARG-LBD, 5 nM Tb-GST-antibody, 5 nM Fluormone Pan-PPAR Green, and serial dilutions of the experimental compound, beginning at 10 ׬M downwards, was added to wells of black 384-well low-volume plates (Greiner) to a total volume of 18 ׬L. All dilutions were made in TR-FRET assay buffer C. DMSO at 2% final concentration was used as a no-ligand control. Experiment was performed in triplicate, and incubated for 2 hours in the dark prior to assay read in Perkin Elmer ViewLux ultra HTS microplate reader. FRET signal was measured by excitation at 340 nm and emission at 520 nm for fluorescein and 490 nm for terbium. Fold change over DMSO was calculated using GraphPad Prism Software (La Jolla, Calif.) by calculating 520 nm/490 nm ratio. Graphs were plotted as fold change of FRET signal for compound treatment over DMSO-only control.

$$$$
CHEMBL374344
Actelion Java MolfileCreator 2.0

  0  0  0  0  0  0              0 V3000
M  V30 BEGIN CTAB
M  V30 COUNTS 43 47 0 0 0
M  V30 BEGIN ATOM
M  V30 1 O 2.598 1.0 0.0 0
M  V30 2 C 2.598 0.0 0.0 0
M  V30 3 O 3.4641 -0.5 0.0 0
M  V30 4 N 1.732 -0.5 0.0 0
M  V30 5 C 4.3301 0.0 0.0 0
M  V30 6 C 0.866 0.0 0.0 0
M  V30 7 N 5.1961 -0.4999 0.0 0
M  V30 8 C 4.3301 0.9999 0.0 0
M  V30 9 C 0.0 -0.5 0.0 0
M  V30 10 C 6.0621 0.0 0.0 0
M  V30 11 N 5.1961 1.4999 0.0 0
M  V30 12 C -0.866 0.0 0.0 0
M  V30 13 C 0.0 -1.4999 0.0 0
M  V30 14 C 6.0621 1.0 0.0 0
M  V30 15 C -1.732 -0.4999 0.0 0
M  V30 16 C -0.866 1.0 0.0 0
M  V30 17 C -0.866 -1.9999 0.0 0
M  V30 18 C -1.732 -1.4999 0.0 0
M  V30 19 C -1.732 1.5 0.0 0
M  V30 20 O -0.866 -2.9999 0.0 0
M  V30 21 C -1.732 2.5 0.0 0
M  V30 22 C 0.0 -3.4999 0.0 0
M  V30 23 O -0.866 3.0 0.0 0
M  V30 24 O -2.598 3.0 0.0 0
M  V30 25 C 0.0 -4.4999 0.0 0
M  V30 26 C 0.866 -5.0 0.0 0
M  V30 27 N 0.9705 -5.9945 0.0 0
M  V30 28 C 1.7795 -4.5932 0.0 0
M  V30 29 C 1.9487 -6.2024 0.0 0
M  V30 30 O 2.4487 -5.3364 0.0 0
M  V30 31 C 1.9874 -3.6151 0.0 0
M  V30 32 C 2.3554 -7.1159 0.0 0
M  V30 33 C 1.7676 -7.9249 0.0 0
M  V30 34 C 3.3499 -7.2205 0.0 0
M  V30 35 C 2.1743 -8.8385 0.0 0
M  V30 36 C 3.7566 -8.134 0.0 0
M  V30 37 C 3.1689 -8.943 0.0 0
M  V30 38 C 3.5756 -9.8566 0.0 0
M  V30 39 C 2.9878 -10.6656 0.0 0
M  V30 40 C 4.5701 -9.9611 0.0 0
M  V30 41 C 3.3945 -11.5791 0.0 0
M  V30 42 C 4.9769 -10.8746 0.0 0
M  V30 43 C 4.3891 -11.6837 0.0 0
M  V30 END ATOM
M  V30 BEGIN BOND
M  V30 1 2 1 2
M  V30 2 1 2 3
M  V30 3 1 2 4
M  V30 4 1 3 5
M  V30 5 1 4 6
M  V30 6 2 5 7
M  V30 7 1 5 8
M  V30 8 1 6 9
M  V30 9 1 7 10
M  V30 10 2 8 11
M  V30 11 2 9 12
M  V30 12 1 9 13
M  V30 13 2 10 14
M  V30 14 1 12 15
M  V30 15 1 12 16
M  V30 16 2 13 17
M  V30 17 2 15 18
M  V30 18 1 16 19
M  V30 19 1 17 20
M  V30 20 1 19 21
M  V30 21 1 20 22
M  V30 22 2 21 23
M  V30 23 1 21 24
M  V30 24 1 22 25
M  V30 25 1 25 26
M  V30 26 1 26 27
M  V30 27 2 26 28
M  V30 28 2 27 29
M  V30 29 1 28 30
M  V30 30 1 28 31
M  V30 31 1 29 32
M  V30 32 2 32 33
M  V30 33 1 32 34
M  V30 34 1 33 35
M  V30 35 2 34 36
M  V30 36 2 35 37
M  V30 37 1 37 38
M  V30 38 2 38 39
M  V30 39 1 38 40
M  V30 40 1 39 41
M  V30 41 2 40 42
M  V30 42 2 41 43
M  V30 43 1 11 14
M  V30 44 1 17 18
M  V30 45 1 29 30
M  V30 46 1 36 37
M  V30 47 1 42 43
M  V30 END BOND
M  V30 END CTAB
M  END
>  <Molecule ChEMBL ID>
CHEMBL374344

>  <Smiles>
Cc1oc(-c2ccc(-c3ccccc3)cc2)nc1CCOc1ccc(CCC(=O)O)c(CNC(=O)Oc2cnccn2)c1

>  <IC50_nM>
26

>  <Assay Description>
Displacement of [3H]2-methyl-2-(4-{3-propyl-(5-pyridin-2yl-thiophene-2-sulfonyl)-amino]-pro-pyl}-phenoxy)-propionic acid from human PPARgamma

$$$$
CHEMBL219824
Actelion Java MolfileCreator 2.0

  0  0  0  0  0  0              0 V3000
M  V30 BEGIN CTAB
M  V30 COUNTS 34 36 0 0 0
M  V30 BEGIN ATOM
M  V30 1 O 2.598 1.0 0.0 0
M  V30 2 C 2.598 0.0 0.0 0
M  V30 3 O 3.4641 -0.5 0.0 0
M  V30 4 N 1.732 -0.5 0.0 0
M  V30 5 C 4.3301 0.0 0.0 0
M  V30 6 C 0.866 0.0 0.0 0
M  V30 7 C 5.1961 -0.5 0.0 0
M  V30 8 C 4.3301 1.0 0.0 0
M  V30 9 C 0.0 -0.5 0.0 0
M  V30 10 C -0.866 0.0 0.0 0
M  V30 11 C 0.0 -1.4999 0.0 0
M  V30 12 C -1.732 -0.4999 0.0 0
M  V30 13 C -0.866 1.0 0.0 0
M  V30 14 C -0.866 -1.9999 0.0 0
M  V30 15 C -1.732 -1.4999 0.0 0
M  V30 16 C -1.732 1.5 0.0 0
M  V30 17 O -0.866 -2.9999 0.0 0
M  V30 18 C -1.732 2.5 0.0 0
M  V30 19 C 0.0 -3.4999 0.0 0
M  V30 20 O -0.866 3.0 0.0 0
M  V30 21 O -2.598 3.0 0.0 0
M  V30 22 C 0.0 -4.4999 0.0 0
M  V30 23 C 0.866 -5.0 0.0 0
M  V30 24 N 0.9705 -5.9945 0.0 0
M  V30 25 C 1.7795 -4.5932 0.0 0
M  V30 26 C 1.9487 -6.2024 0.0 0
M  V30 27 O 2.4487 -5.3364 0.0 0
M  V30 28 C 1.9874 -3.6151 0.0 0
M  V30 29 C 2.3554 -7.1159 0.0 0
M  V30 30 C 1.7676 -7.9249 0.0 0
M  V30 31 C 3.3499 -7.2205 0.0 0
M  V30 32 C 2.1743 -8.8385 0.0 0
M  V30 33 C 3.7566 -8.134 0.0 0
M  V30 34 C 3.1689 -8.943 0.0 0
M  V30 END ATOM
M  V30 BEGIN BOND
M  V30 1 2 1 2
M  V30 2 1 2 3
M  V30 3 1 2 4
M  V30 4 1 3 5
M  V30 5 1 4 6
M  V30 6 1 5 7
M  V30 7 1 5 8
M  V30 8 1 6 9
M  V30 9 2 9 10
M  V30 10 1 9 11
M  V30 11 1 10 12
M  V30 12 1 10 13
M  V30 13 2 11 14
M  V30 14 2 12 15
M  V30 15 1 13 16
M  V30 16 1 14 17
M  V30 17 1 16 18
M  V30 18 1 17 19
M  V30 19 2 18 20
M  V30 20 1 18 21
M  V30 21 1 19 22
M  V30 22 1 22 23
M  V30 23 1 23 24
M  V30 24 2 23 25
M  V30 25 2 24 26
M  V30 26 1 25 27
M  V30 27 1 25 28
M  V30 28 1 26 29
M  V30 29 2 29 30
M  V30 30 1 29 31
M  V30 31 1 30 32
M  V30 32 2 31 33
M  V30 33 2 32 34
M  V30 34 1 14 15
M  V30 35 1 26 27
M  V30 36 1 33 34
M  V30 END BOND
M  V30 END CTAB
M  END
>  <Molecule ChEMBL ID>
CHEMBL219824

>  <Smiles>
Cc1oc(-c2ccccc2)nc1CCOc1ccc(CCC(=O)O)c(CNC(=O)OC(C)C)c1

>  <IC50_nM>
26

>  <Assay Description>
Displacement of [3H]2-methyl-2-(4-{3-propyl-(5-pyridin-2yl-thiophene-2-sulfonyl)-amino]-pro-pyl}-phenoxy)-propionic acid from human PPARgamma

$$$$
CHEMBL235143
Actelion Java MolfileCreator 2.0

  0  0  0  0  0  0              0 V3000
M  V30 BEGIN CTAB
M  V30 COUNTS 34 37 0 0 0
M  V30 BEGIN ATOM
M  V30 1 Cl 9.8201 -5.1517 0.0 0
M  V30 2 C 9.0701 -3.8526 0.0 0
M  V30 3 C 7.5701 -3.8526 0.0 0
M  V30 4 C 9.8201 -2.5536 0.0 0
M  V30 5 C 6.8201 -2.5536 0.0 0
M  V30 6 C 9.0701 -1.2546 0.0 0
M  V30 7 C 7.5701 -1.2546 0.0 0
M  V30 8 C 5.3529 -2.2417 0.0 0
M  V30 9 N 6.5664 -0.1398 0.0 0
M  V30 10 C 5.1961 -0.75 0.0 0
M  V30 11 C 4.2382 -3.2454 0.0 0
M  V30 12 C 3.8971 0.0 0.0 0
M  V30 13 O 3.8971 1.5 0.0 0
M  V30 14 N 2.598 -0.75 0.0 0
M  V30 15 C 1.299 0.0 0.0 0
M  V30 16 C 0.0 -0.75 0.0 0
M  V30 17 C -1.299 0.0 0.0 0
M  V30 18 C 0.0 -2.25 0.0 0
M  V30 19 C -2.598 -0.7499 0.0 0
M  V30 20 C -1.299 -2.9999 0.0 0
M  V30 21 O -3.8971 0.0 0.0 0
M  V30 22 C -2.598 -2.2499 0.0 0
M  V30 23 C -5.1961 -0.7499 0.0 0
M  V30 24 C -6.4951 0.0 0.0 0
M  V30 25 C -5.1961 -2.2499 0.0 0
M  V30 26 C -7.7942 -0.7499 0.0 0
M  V30 27 C -6.4951 -2.9999 0.0 0
M  V30 28 C -7.7942 -2.2499 0.0 0
M  V30 29 C -9.0932 0.0 0.0 0
M  V30 30 C -9.0932 -2.9999 0.0 0
M  V30 31 C -9.0932 -4.4999 0.0 0
M  V30 32 C -10.3923 -5.2499 0.0 0
M  V30 33 O -11.6913 -4.4999 0.0 0
M  V30 34 O -10.3923 -6.7499 0.0 0
M  V30 END ATOM
M  V30 BEGIN BOND
M  V30 1 1 1 2
M  V30 2 2 2 3
M  V30 3 1 2 4
M  V30 4 1 3 5
M  V30 5 2 4 6
M  V30 6 2 5 7
M  V30 7 1 5 8
M  V30 8 1 7 9
M  V30 9 2 8 10
M  V30 10 1 8 11
M  V30 11 1 10 12
M  V30 12 2 12 13
M  V30 13 1 12 14
M  V30 14 1 14 15
M  V30 15 1 15 16
M  V30 16 2 16 17
M  V30 17 1 16 18
M  V30 18 1 17 19
M  V30 19 2 18 20
M  V30 20 1 19 21
M  V30 21 2 19 22
M  V30 22 1 21 23
M  V30 23 2 23 24
M  V30 24 1 23 25
M  V30 25 1 24 26
M  V30 26 2 25 27
M  V30 27 2 26 28
M  V30 28 1 26 29
M  V30 29 1 28 30
M  V30 30 1 30 31
M  V30 31 1 31 32
M  V30 32 2 32 33
M  V30 33 1 32 34
M  V30 34 1 6 7
M  V30 35 1 9 10
M  V30 36 1 20 22
M  V30 37 1 27 28
M  V30 END BOND
M  V30 END CTAB
M  END
>  <Molecule ChEMBL ID>
CHEMBL235143

>  <Smiles>
Cc1cc(Oc2cccc(CNC(=O)c3[nH]c4ccc(Cl)cc4c3C)c2)ccc1CCC(=O)O

>  <IC50_nM>
26.98

>  <Assay Description>
Agonist activity at PPARgamma

$$$$
CHEMBL213678
Actelion Java MolfileCreator 2.0

  0  0  0  0  0  0              0 V3000
M  V30 BEGIN CTAB
M  V30 COUNTS 32 35 0 0 0
M  V30 BEGIN ATOM
M  V30 1 O 4.3301 0.0 0.0 0
M  V30 2 C 3.4641 -0.5 0.0 0
M  V30 3 O 3.4641 -1.5 0.0 0
M  V30 4 C 2.598 0.0 0.0 0 CFG=1
M  V30 5 O 1.732 -0.5 0.0 0
M  V30 6 C 2.598 1.0 0.0 0
M  V30 7 C 0.866 0.0 0.0 0
M  V30 8 C 1.732 1.5 0.0 0
M  V30 9 C 0.0 -0.5 0.0 0
M  V30 10 C 0.866 1.0 0.0 0
M  V30 11 C 1.732 2.5 0.0 0
M  V30 12 C 0.0 1.5 0.0 0
M  V30 13 C 0.866 3.0 0.0 0
M  V30 14 C 0.0 2.5 0.0 0
M  V30 15 C -0.951 1.1909 0.0 0
M  V30 16 N -0.951 2.809 0.0 0
M  V30 17 C -1.5388 2.0 0.0 0
M  V30 18 C -1.26 3.76 0.0 0
M  V30 19 C -2.2382 3.9679 0.0 0
M  V30 20 N -2.6449 4.8815 0.0 0
M  V30 21 C -2.9813 3.2988 0.0 0
M  V30 22 C -3.6394 4.777 0.0 0
M  V30 23 O -3.8473 3.7988 0.0 0
M  V30 24 C -2.8768 2.3043 0.0 0
M  V30 25 C -4.3086 5.5201 0.0 0
M  V30 26 C -3.9995 6.4712 0.0 0
M  V30 27 C -5.2867 5.3122 0.0 0
M  V30 28 C -4.6687 7.2143 0.0 0
M  V30 29 C -5.9558 6.0553 0.0 0
M  V30 30 C -5.6468 7.0064 0.0 0
M  V30 31 C -6.316 7.7495 0.0 0
M  V30 32 C -7.2941 7.5416 0.0 0
M  V30 END ATOM
M  V30 BEGIN BOND
M  V30 1 2 1 2
M  V30 2 1 2 3
M  V30 3 1 2 4
M  V30 4 1 4 5 CFG=1
M  V30 5 1 4 6
M  V30 6 1 5 7
M  V30 7 1 6 8
M  V30 8 1 7 9
M  V30 9 2 8 10
M  V30 10 1 8 11
M  V30 11 1 10 12
M  V30 12 2 11 13
M  V30 13 2 12 14
M  V30 14 1 12 15
M  V30 15 1 14 16
M  V30 16 2 15 17
M  V30 17 1 16 18
M  V30 18 1 18 19
M  V30 19 1 19 20
M  V30 20 2 19 21
M  V30 21 2 20 22
M  V30 22 1 21 23
M  V30 23 1 21 24
M  V30 24 1 22 25
M  V30 25 2 25 26
M  V30 26 1 25 27
M  V30 27 1 26 28
M  V30 28 2 27 29
M  V30 29 2 28 30
M  V30 30 1 30 31
M  V30 31 1 31 32
M  V30 32 1 13 14
M  V30 33 1 16 17
M  V30 34 1 22 23
M  V30 35 1 29 30
M  V30 END BOND
M  V30 BEGIN COLLECTION
M  V30 MDLV30/STERAC1 ATOMS=(1 4)
M  V30 END COLLECTION
M  V30 END CTAB
M  END
>  <Molecule ChEMBL ID>
CHEMBL213678

>  <Smiles>
CCOC(Cc1ccc2c(ccn2Cc2nc(-c3ccc(CC)cc3)oc2C)c1)C(=O)O

>  <IC50_nM>
27

>  <Assay Description>
Binding affinity to PPARgamma by radio ligand binding assay

$$$$
CHEMBL381865
Actelion Java MolfileCreator 2.0

  0  0  0  0  0  0              0 V3000
M  V30 BEGIN CTAB
M  V30 COUNTS 34 37 0 0 0
M  V30 BEGIN ATOM
M  V30 1 Cl 5.8147 -1.7024 0.0 0
M  V30 2 C 4.8147 -1.7024 0.0 0
M  V30 3 C 4.3147 -0.8364 0.0 0
M  V30 4 C 4.3147 -2.5684 0.0 0
M  V30 5 C 3.3147 -0.8364 0.0 0
M  V30 6 C 3.3147 -2.5684 0.0 0
M  V30 7 N 2.6455 -0.0932 0.0 0
M  V30 8 C 2.8147 -1.7024 0.0 0
M  V30 9 C 2.8535 0.8848 0.0 0
M  V30 10 C 1.732 -0.5 0.0 0
M  V30 11 C 1.8365 -1.4945 0.0 0
M  V30 12 C 3.8045 1.1939 0.0 0
M  V30 13 C 2.1103 1.554 0.0 0
M  V30 14 C 0.866 0.0 0.0 0
M  V30 15 O 1.0934 -2.1636 0.0 0
M  V30 16 C 4.0124 2.172 0.0 0
M  V30 17 C 2.3182 2.5321 0.0 0
M  V30 18 O 0.866 1.0 0.0 0
M  V30 19 O 0.0 -0.5 0.0 0
M  V30 20 C 1.3013 -3.1418 0.0 0
M  V30 21 C 3.2693 2.8411 0.0 0
M  V30 22 C 0.5582 -3.8109 0.0 0
M  V30 23 C 2.2524 -3.4508 0.0 0
M  V30 24 C 3.4772 3.8193 0.0 0
M  V30 25 C 0.7661 -4.789 0.0 0
M  V30 26 C 2.4603 -4.4289 0.0 0
M  V30 27 C 2.499 4.0272 0.0 0
M  V30 28 C 3.6851 4.7974 0.0 0
M  V30 29 C 4.4553 3.6114 0.0 0
M  V30 30 C 1.7171 -5.098 0.0 0
M  V30 31 C 0.0229 -5.4582 0.0 0
M  V30 32 F 0.692 -6.2013 0.0 0
M  V30 33 F -0.7201 -6.1273 0.0 0
M  V30 34 F -0.6461 -4.715 0.0 0
M  V30 END ATOM
M  V30 BEGIN BOND
M  V30 1 1 1 2
M  V30 2 2 2 3
M  V30 3 1 2 4
M  V30 4 1 3 5
M  V30 5 2 4 6
M  V30 6 1 5 7
M  V30 7 2 5 8
M  V30 8 1 7 9
M  V30 9 1 7 10
M  V30 10 1 8 11
M  V30 11 2 9 12
M  V30 12 1 9 13
M  V30 13 1 10 14
M  V30 14 1 11 15
M  V30 15 1 12 16
M  V30 16 2 13 17
M  V30 17 2 14 18
M  V30 18 1 14 19
M  V30 19 1 15 20
M  V30 20 2 16 21
M  V30 21 2 20 22
M  V30 22 1 20 23
M  V30 23 1 21 24
M  V30 24 1 22 25
M  V30 25 2 23 26
M  V30 26 1 24 27
M  V30 27 1 24 28
M  V30 28 1 24 29
M  V30 29 2 25 30
M  V30 30 1 25 31
M  V30 31 1 31 32
M  V30 32 1 31 33
M  V30 33 1 31 34
M  V30 34 1 6 8
M  V30 35 2 10 11
M  V30 36 1 17 21
M  V30 37 1 26 30
M  V30 END BOND
M  V30 END CTAB
M  END
>  <Molecule ChEMBL ID>
CHEMBL381865

>  <Smiles>
CC(C)(C)c1ccc(-n2c(C(=O)O)c(Oc3cccc(C(F)(F)F)c3)c3ccc(Cl)cc32)cc1

>  <IC50_nM>
27

>  <Assay Description>
Inhibitory concentration against human peroxisome proliferator activated receptor gamma in SPA assay

$$$$
CHEMBL521170
Actelion Java MolfileCreator 2.0

  0  0  0  0  0  0              0 V3000
M  V30 BEGIN CTAB
M  V30 COUNTS 37 40 0 0 0
M  V30 BEGIN ATOM
M  V30 1 F 13.1494 -3.4498 0.0 0
M  V30 2 C 12.2359 -3.8566 0.0 0
M  V30 3 F 12.6426 -4.7701 0.0 0
M  V30 4 F 11.3223 -4.2633 0.0 0
M  V30 5 C 11.8291 -2.943 0.0 0
M  V30 6 C 12.4169 -2.134 0.0 0
M  V30 7 C 10.8346 -2.8385 0.0 0
M  V30 8 C 12.0102 -1.2205 0.0 0
M  V30 9 C 10.4279 -1.9249 0.0 0
M  V30 10 C 11.0156 -1.1159 0.0 0
M  V30 11 C 10.6089 -0.2024 0.0 0
M  V30 12 O 11.1089 0.6635 0.0 0
M  V30 13 N 9.6308 0.0054 0.0 0
M  V30 14 C 10.4398 1.4067 0.0 0
M  V30 15 C 9.5262 0.9999 0.0 0
M  V30 16 C 10.6477 2.3848 0.0 0
M  V30 17 C 8.6602 1.4999 0.0 0
M  V30 18 C 7.7942 0.9999 0.0 0
M  V30 19 O 6.9282 1.4999 0.0 0
M  V30 20 C 6.0621 0.9999 0.0 0
M  V30 21 C 5.1961 1.4999 0.0 0
M  V30 22 C 6.0621 0.0 0.0 0
M  V30 23 C 4.3301 0.9999 0.0 0
M  V30 24 C 5.1961 2.4999 0.0 0
M  V30 25 C 5.1961 -0.5 0.0 0
M  V30 26 C 4.3301 0.0 0.0 0
M  V30 27 C 3.4641 1.5 0.0 0
M  V30 28 C 4.3301 2.9999 0.0 0
M  V30 29 C 3.4641 -0.5 0.0 0
M  V30 30 C 3.4641 2.5 0.0 0
M  V30 31 C 3.4641 -1.5 0.0 0 CFG=2
M  V30 32 O 2.598 -1.9999 0.0 0
M  V30 33 C 4.3301 -2.0 0.0 0
M  V30 34 C 2.598 -2.9999 0.0 0
M  V30 35 O 5.1961 -1.4999 0.0 0
M  V30 36 O 4.3301 -2.9999 0.0 0
M  V30 37 C 1.732 -3.5 0.0 0
M  V30 END ATOM
M  V30 BEGIN BOND
M  V30 1 1 1 2
M  V30 2 1 2 3
M  V30 3 1 2 4
M  V30 4 1 2 5
M  V30 5 2 5 6
M  V30 6 1 5 7
M  V30 7 1 6 8
M  V30 8 2 7 9
M  V30 9 2 8 10
M  V30 10 1 10 11
M  V30 11 1 11 12
M  V30 12 2 11 13
M  V30 13 1 12 14
M  V30 14 1 13 15
M  V30 15 1 14 16
M  V30 16 1 15 17
M  V30 17 1 17 18
M  V30 18 1 18 19
M  V30 19 1 19 20
M  V30 20 1 20 21
M  V30 21 2 20 22
M  V30 22 1 21 23
M  V30 23 2 21 24
M  V30 24 1 22 25
M  V30 25 1 23 26
M  V30 26 2 23 27
M  V30 27 1 24 28
M  V30 28 1 26 29
M  V30 29 1 27 30
M  V30 30 1 29 31
M  V30 31 1 31 32 CFG=1
M  V30 32 1 31 33
M  V30 33 1 32 34
M  V30 34 2 33 35
M  V30 35 1 33 36
M  V30 36 1 34 37
M  V30 37 1 9 10
M  V30 38 2 14 15
M  V30 39 2 25 26
M  V30 40 2 28 30
M  V30 END BOND
M  V30 BEGIN COLLECTION
M  V30 MDLV30/STEABS ATOMS=(1 31)
M  V30 END COLLECTION
M  V30 END CTAB
M  END
>  <Molecule ChEMBL ID>
CHEMBL521170

>  <Smiles>
CCO[C@@H](Cc1ccc(OCCc2nc(-c3ccc(C(F)(F)F)cc3)oc2C)c2ccccc12)C(=O)O

>  <IC50_nM>
27

>  <Assay Description>
Displacement of radio labeled 2(S)-(2-benzoyl-phenylamino)-3-{4-[1,1-ditritio-2-(5-methyl-2-phenyl-oxazol-4-yl)-ethoxy]-phenyl}-propionic acid from GST-fused human PPARgamma expressed in Escherichia coli BL21 cells by scintillation proximity assay

$$$$
CHEMBL2338479
Actelion Java MolfileCreator 2.0

  0  0  0  0  0  0              0 V3000
M  V30 BEGIN CTAB
M  V30 COUNTS 29 31 0 0 0
M  V30 BEGIN ATOM
M  V30 1 Cl 7.7942 -0.75 0.0 0
M  V30 2 C 6.4951 0.0 0.0 0
M  V30 3 C 6.4951 1.5 0.0 0
M  V30 4 C 5.1961 -0.75 0.0 0
M  V30 5 O 7.7942 2.25 0.0 0
M  V30 6 C 5.1961 2.25 0.0 0
M  V30 7 C 3.8971 0.0 0.0 0
M  V30 8 C 7.7942 3.75 0.0 0
M  V30 9 Cl 5.1961 3.75 0.0 0
M  V30 10 C 3.8971 1.5 0.0 0
M  V30 11 N 2.598 -0.75 0.0 0
M  V30 12 C 9.0932 4.5 0.0 0
M  V30 13 C 6.4951 4.5 0.0 0
M  V30 14 S 1.299 0.0 0.0 0
M  V30 15 N 9.0932 6.0 0.0 0
M  V30 16 C 6.4951 6.0 0.0 0
M  V30 17 O 2.049 1.299 0.0 0
M  V30 18 O 0.549 1.299 0.0 0
M  V30 19 C 0.0 -0.75 0.0 0
M  V30 20 C 7.7942 6.75 0.0 0
M  V30 21 C 5.1961 6.75 0.0 0
M  V30 22 C -1.299 0.0 0.0 0
M  V30 23 C 0.0 -2.25 0.0 0
M  V30 24 N 3.8971 7.5 0.0 0
M  V30 25 Cl -1.299 1.5 0.0 0
M  V30 26 C -2.598 -0.75 0.0 0
M  V30 27 C -1.299 -3.0 0.0 0
M  V30 28 C -2.598 -2.25 0.0 0
M  V30 29 Cl -3.8971 -3.0 0.0 0
M  V30 END ATOM
M  V30 BEGIN BOND
M  V30 1 1 1 2
M  V30 2 2 2 3
M  V30 3 1 2 4
M  V30 4 1 3 5
M  V30 5 1 3 6
M  V30 6 2 4 7
M  V30 7 1 5 8
M  V30 8 1 6 9
M  V30 9 2 6 10
M  V30 10 1 7 11
M  V30 11 2 8 12
M  V30 12 1 8 13
M  V30 13 1 11 14
M  V30 14 1 12 15
M  V30 15 2 13 16
M  V30 16 2 14 17
M  V30 17 2 14 18
M  V30 18 1 14 19
M  V30 19 2 15 20
M  V30 20 1 16 21
M  V30 21 2 19 22
M  V30 22 1 19 23
M  V30 23 3 21 24
M  V30 24 1 22 25
M  V30 25 1 22 26
M  V30 26 2 23 27
M  V30 27 2 26 28
M  V30 28 1 28 29
M  V30 29 1 7 10
M  V30 30 1 16 20
M  V30 31 1 27 28
M  V30 END BOND
M  V30 END CTAB
M  END
>  <Molecule ChEMBL ID>
CHEMBL2338479

>  <Smiles>
N#Cc1cncc(Oc2c(Cl)cc(NS(=O)(=O)c3ccc(Cl)cc3Cl)cc2Cl)c1

>  <IC50_nM>
27

>  <Assay Description>
Displacement of [3H]-rosiglitazone from GST-tagged PPARgammaLBD (unknown origin) after 1 hr by scintillation proximity assay

$$$$
CHEMBL3699426
Actelion Java MolfileCreator 2.0

  0  0  0  0  0  0              0 V3000
M  V30 BEGIN CTAB
M  V30 COUNTS 43 47 0 0 0
M  V30 BEGIN ATOM
M  V30 1 F 2.598 -1.9999 0.0 0
M  V30 2 C 3.4641 -1.4999 0.0 0
M  V30 3 C 4.3301 -1.9999 0.0 0
M  V30 4 C 3.4641 -0.5 0.0 0
M  V30 5 C 5.1961 -1.4999 0.0 0
M  V30 6 C 4.3301 -2.9999 0.0 0
M  V30 7 C 4.3301 0.0 0.0 0
M  V30 8 C 2.598 0.0 0.0 0 CFG=1
M  V30 9 C 5.1961 -0.4999 0.0 0
M  V30 10 F 5.3301 -2.9999 0.0 0
M  V30 11 F 4.3301 -3.9999 0.0 0
M  V30 12 F 3.3301 -3.0 0.0 0
M  V30 13 N 1.732 -0.5 0.0 0
M  V30 14 C 2.598 1.0 0.0 0
M  V30 15 C 0.866 0.0 0.0 0
M  V30 16 O 0.866 1.0 0.0 0
M  V30 17 C 0.0 -0.5 0.0 0
M  V30 18 C 0.0 -1.4999 0.0 0
M  V30 19 C -0.866 0.0 0.0 0
M  V30 20 C -0.866 -1.9999 0.0 0
M  V30 21 C -1.732 -0.4999 0.0 0
M  V30 22 C -1.732 -1.4999 0.0 0
M  V30 23 C -1.0739 -2.9781 0.0 0
M  V30 24 N -2.4751 -2.1691 0.0 0
M  V30 25 C -2.0684 -3.0826 0.0 0
M  V30 26 C -0.4048 -3.7212 0.0 0
M  V30 27 C -3.4533 -1.9612 0.0 0
M  V30 28 C -2.5684 -3.9487 0.0 0
M  V30 29 C -4.1224 -2.7043 0.0 0
M  V30 30 C -5.1006 -2.4964 0.0 0
M  V30 31 C -3.8134 -3.6554 0.0 0
M  V30 32 C -5.7697 -3.2395 0.0 0
M  V30 33 C -4.4825 -4.3985 0.0 0
M  V30 34 C -5.4607 -4.1906 0.0 0
M  V30 35 C -6.1298 -4.9337 0.0 0
M  V30 36 C -7.108 -4.7258 0.0 0
M  V30 37 C -5.8208 -5.8848 0.0 0
M  V30 38 C -7.417 -3.7748 0.0 0
M  V30 39 C -7.7771 -5.469 0.0 0
M  V30 40 C -6.4899 -6.6279 0.0 0
M  V30 41 O -6.7478 -3.0316 0.0 0
M  V30 42 O -8.3951 -3.5669 0.0 0
M  V30 43 C -7.4681 -6.42 0.0 0
M  V30 END ATOM
M  V30 BEGIN BOND
M  V30 1 1 1 2
M  V30 2 2 2 3
M  V30 3 1 2 4
M  V30 4 1 3 5
M  V30 5 1 3 6
M  V30 6 2 4 7
M  V30 7 1 4 8
M  V30 8 2 5 9
M  V30 9 1 6 10
M  V30 10 1 6 11
M  V30 11 1 6 12
M  V30 12 1 8 13
M  V30 13 1 8 14 CFG=1
M  V30 14 1 13 15
M  V30 15 2 15 16
M  V30 16 1 15 17
M  V30 17 2 17 18
M  V30 18 1 17 19
M  V30 19 1 18 20
M  V30 20 2 19 21
M  V30 21 2 20 22
M  V30 22 1 20 23
M  V30 23 1 22 24
M  V30 24 2 23 25
M  V30 25 1 23 26
M  V30 26 1 24 27
M  V30 27 1 25 28
M  V30 28 1 27 29
M  V30 29 2 29 30
M  V30 30 1 29 31
M  V30 31 1 30 32
M  V30 32 2 31 33
M  V30 33 2 32 34
M  V30 34 1 34 35
M  V30 35 2 35 36
M  V30 36 1 35 37
M  V30 37 1 36 38
M  V30 38 1 36 39
M  V30 39 2 37 40
M  V30 40 2 38 41
M  V30 41 1 38 42
M  V30 42 2 39 43
M  V30 43 1 7 9
M  V30 44 1 21 22
M  V30 45 1 24 25
M  V30 46 1 33 34
M  V30 47 1 40 43
M  V30 END BOND
M  V30 BEGIN COLLECTION
M  V30 MDLV30/STEABS ATOMS=(1 8)
M  V30 END COLLECTION
M  V30 END CTAB
M  END
>  <Molecule ChEMBL ID>
CHEMBL3699426

>  <Smiles>
Cc1c(C)n(Cc2ccc(-c3ccccc3C(=O)O)cc2)c2ccc(C(=O)N[C@@H](C)c3cccc(C(F)(F)F)c3F)cc12

>  <IC50_nM>
27

>  <Assay Description>
Lanthascreen Competitive Binding Assay: The assay was performed according to manufacturer protocol. A mixture of nM GST-PPARG-LBD, 5 nM Tb-GST-antibody, 5 nM Fluormone Pan-PPAR Green, and serial dilutions of the experimental compound, beginning at 10 ׬M downwards, was added to wells of black 384-well low-volume plates (Greiner) to a total volume of 18 ׬L. All dilutions were made in TR-FRET assay buffer C. DMSO at 2% final concentration was used as a no-ligand control. Experiment was performed in triplicate, and incubated for 2 hours in the dark prior to assay read in Perkin Elmer ViewLux ultra HTS microplate reader. FRET signal was measured by excitation at 340 nm and emission at 520 nm for fluorescein and 490 nm for terbium. Fold change over DMSO was calculated using GraphPad Prism Software (La Jolla, Calif.) by calculating 520 nm/490 nm ratio. Graphs were plotted as fold change of FRET signal for compound treatment over DMSO-only control.

$$$$
CHEMBL235143
Actelion Java MolfileCreator 2.0

  0  0  0  0  0  0              0 V3000
M  V30 BEGIN CTAB
M  V30 COUNTS 34 37 0 0 0
M  V30 BEGIN ATOM
M  V30 1 Cl 9.8201 -5.1517 0.0 0
M  V30 2 C 9.0701 -3.8526 0.0 0
M  V30 3 C 7.5701 -3.8526 0.0 0
M  V30 4 C 9.8201 -2.5536 0.0 0
M  V30 5 C 6.8201 -2.5536 0.0 0
M  V30 6 C 9.0701 -1.2546 0.0 0
M  V30 7 C 7.5701 -1.2546 0.0 0
M  V30 8 C 5.3529 -2.2417 0.0 0
M  V30 9 N 6.5664 -0.1398 0.0 0
M  V30 10 C 5.1961 -0.75 0.0 0
M  V30 11 C 4.2382 -3.2454 0.0 0
M  V30 12 C 3.8971 0.0 0.0 0
M  V30 13 O 3.8971 1.5 0.0 0
M  V30 14 N 2.598 -0.75 0.0 0
M  V30 15 C 1.299 0.0 0.0 0
M  V30 16 C 0.0 -0.75 0.0 0
M  V30 17 C -1.299 0.0 0.0 0
M  V30 18 C 0.0 -2.25 0.0 0
M  V30 19 C -2.598 -0.7499 0.0 0
M  V30 20 C -1.299 -2.9999 0.0 0
M  V30 21 O -3.8971 0.0 0.0 0
M  V30 22 C -2.598 -2.2499 0.0 0
M  V30 23 C -5.1961 -0.7499 0.0 0
M  V30 24 C -6.4951 0.0 0.0 0
M  V30 25 C -5.1961 -2.2499 0.0 0
M  V30 26 C -7.7942 -0.7499 0.0 0
M  V30 27 C -6.4951 -2.9999 0.0 0
M  V30 28 C -7.7942 -2.2499 0.0 0
M  V30 29 C -9.0932 0.0 0.0 0
M  V30 30 C -9.0932 -2.9999 0.0 0
M  V30 31 C -9.0932 -4.4999 0.0 0
M  V30 32 C -10.3923 -5.2499 0.0 0
M  V30 33 O -11.6913 -4.4999 0.0 0
M  V30 34 O -10.3923 -6.7499 0.0 0
M  V30 END ATOM
M  V30 BEGIN BOND
M  V30 1 1 1 2
M  V30 2 2 2 3
M  V30 3 1 2 4
M  V30 4 1 3 5
M  V30 5 2 4 6
M  V30 6 2 5 7
M  V30 7 1 5 8
M  V30 8 1 7 9
M  V30 9 2 8 10
M  V30 10 1 8 11
M  V30 11 1 10 12
M  V30 12 2 12 13
M  V30 13 1 12 14
M  V30 14 1 14 15
M  V30 15 1 15 16
M  V30 16 2 16 17
M  V30 17 1 16 18
M  V30 18 1 17 19
M  V30 19 2 18 20
M  V30 20 1 19 21
M  V30 21 2 19 22
M  V30 22 1 21 23
M  V30 23 2 23 24
M  V30 24 1 23 25
M  V30 25 1 24 26
M  V30 26 2 25 27
M  V30 27 2 26 28
M  V30 28 1 26 29
M  V30 29 1 28 30
M  V30 30 1 30 31
M  V30 31 1 31 32
M  V30 32 2 32 33
M  V30 33 1 32 34
M  V30 34 1 6 7
M  V30 35 1 9 10
M  V30 36 1 20 22
M  V30 37 1 27 28
M  V30 END BOND
M  V30 END CTAB
M  END
>  <Molecule ChEMBL ID>
CHEMBL235143

>  <Smiles>
Cc1cc(Oc2cccc(CNC(=O)c3[nH]c4ccc(Cl)cc4c3C)c2)ccc1CCC(=O)O

>  <IC50_nM>
27

>  <Assay Description>
Displacement of [3H]2-methyl-2-(4-{3-{propyl-(5-pyridin-2-yl-thiophene-2-sulfonyl)-amino}-propyl}-phenoxy)-propionic acid from human PPARgamma

$$$$
CHEMBL5286386
Actelion Java MolfileCreator 2.0

  0  0  0  0  0  0              0 V3000
M  V30 BEGIN CTAB
M  V30 COUNTS 33 35 0 0 0
M  V30 BEGIN ATOM
M  V30 1 Cl 6.0621 -1.9999 0.0 0
M  V30 2 C 5.1961 -1.4999 0.0 0
M  V30 3 C 5.1961 -0.5 0.0 0
M  V30 4 C 4.3301 -1.9999 0.0 0
M  V30 5 C 6.0621 0.0 0.0 0
M  V30 6 C 4.3301 0.0 0.0 0
M  V30 7 C 3.4641 -1.5 0.0 0
M  V30 8 O 6.0621 0.9999 0.0 0
M  V30 9 N 6.9282 -0.5 0.0 0
M  V30 10 C 3.4641 -0.5 0.0 0
M  V30 11 F 2.598 -2.0 0.0 0
M  V30 12 C 7.7942 0.0 0.0 0
M  V30 13 C 2.598 0.0 0.0 0
M  V30 14 C 8.6602 -0.5 0.0 0
M  V30 15 C 7.7942 0.9999 0.0 0
M  V30 16 O 2.598 1.0 0.0 0
M  V30 17 N 1.732 -0.5 0.0 0
M  V30 18 C 9.5262 0.0 0.0 0
M  V30 19 C 8.6602 1.4999 0.0 0
M  V30 20 C 0.866 0.0 0.0 0
M  V30 21 C 9.5262 0.9999 0.0 0
M  V30 22 C 0.0 -0.5 0.0 0
M  V30 23 C 10.3923 1.4999 0.0 0
M  V30 24 C -0.866 0.0 0.0 0
M  V30 25 C 0.0 -1.4999 0.0 0
M  V30 26 O 9.8923 2.366 0.0 0
M  V30 27 C 11.2583 1.9999 0.0 0
M  V30 28 C 10.8923 0.6339 0.0 0
M  V30 29 C -1.732 -0.4999 0.0 0
M  V30 30 C -0.866 -1.9999 0.0 0
M  V30 31 F -2.598 0.0 0.0 0
M  V30 32 C -1.732 -1.4999 0.0 0
M  V30 33 F -2.598 -1.9999 0.0 0
M  V30 END ATOM
M  V30 BEGIN BOND
M  V30 1 1 1 2
M  V30 2 2 2 3
M  V30 3 1 2 4
M  V30 4 1 3 5
M  V30 5 1 3 6
M  V30 6 2 4 7
M  V30 7 2 5 8
M  V30 8 1 5 9
M  V30 9 2 6 10
M  V30 10 1 7 11
M  V30 11 1 9 12
M  V30 12 1 10 13
M  V30 13 2 12 14
M  V30 14 1 12 15
M  V30 15 2 13 16
M  V30 16 1 13 17
M  V30 17 1 14 18
M  V30 18 2 15 19
M  V30 19 1 17 20
M  V30 20 2 18 21
M  V30 21 1 20 22
M  V30 22 1 21 23
M  V30 23 2 22 24
M  V30 24 1 22 25
M  V30 25 1 23 26
M  V30 26 1 23 27
M  V30 27 1 23 28
M  V30 28 1 24 29
M  V30 29 2 25 30
M  V30 30 1 29 31
M  V30 31 2 29 32
M  V30 32 1 32 33
M  V30 33 1 7 10
M  V30 34 1 19 21
M  V30 35 1 30 32
M  V30 END BOND
M  V30 END CTAB
M  END
>  <Molecule ChEMBL ID>
CHEMBL5286386

>  <Smiles>
CC(C)(O)c1ccc(NC(=O)c2cc(C(=O)NCc3ccc(F)c(F)c3)c(F)cc2Cl)cc1

>  <IC50_nM>
28

>  <Assay Description>
Inverse agonist activity at human PPARgamma expressed in CHO cells co-expressing GAL4-NHR-LBD assessed as transcriptional repression preincubated for 6 hrs followed by luciferin addition by luminescence method

$$$$
CHEMBL3695760
Actelion Java MolfileCreator 2.0

  0  0  0  0  0  0              0 V3000
M  V30 BEGIN CTAB
M  V30 COUNTS 39 43 0 0 0
M  V30 BEGIN ATOM
M  V30 1 Br 6.0621 -1.9999 0.0 0
M  V30 2 C 5.1961 -1.4999 0.0 0
M  V30 3 C 5.1961 -0.5 0.0 0
M  V30 4 C 4.3301 -1.9999 0.0 0
M  V30 5 C 4.3301 0.0 0.0 0
M  V30 6 C 3.4641 -1.5 0.0 0
M  V30 7 C 3.4641 -0.5 0.0 0
M  V30 8 C 2.598 0.0 0.0 0 CFG=1
M  V30 9 N 1.732 -0.5 0.0 0
M  V30 10 C 2.598 1.0 0.0 0
M  V30 11 C 0.866 0.0 0.0 0
M  V30 12 O 0.866 1.0 0.0 0
M  V30 13 C 0.0 -0.5 0.0 0
M  V30 14 C 0.0 -1.4999 0.0 0
M  V30 15 C -0.866 0.0 0.0 0
M  V30 16 C -0.866 -1.9999 0.0 0
M  V30 17 C -1.732 -0.4999 0.0 0
M  V30 18 C -1.732 -1.4999 0.0 0
M  V30 19 C -1.0739 -2.9781 0.0 0
M  V30 20 N -2.4751 -2.1691 0.0 0
M  V30 21 C -2.0684 -3.0826 0.0 0
M  V30 22 C -0.4048 -3.7212 0.0 0
M  V30 23 C -3.4533 -1.9612 0.0 0
M  V30 24 C -2.5684 -3.9487 0.0 0
M  V30 25 C -4.1224 -2.7043 0.0 0
M  V30 26 C -5.1006 -2.4964 0.0 0
M  V30 27 C -3.8134 -3.6554 0.0 0
M  V30 28 C -5.7697 -3.2395 0.0 0
M  V30 29 C -4.4825 -4.3985 0.0 0
M  V30 30 C -5.4607 -4.1906 0.0 0
M  V30 31 C -6.1298 -4.9337 0.0 0
M  V30 32 C -7.108 -4.7258 0.0 0
M  V30 33 C -5.8208 -5.8848 0.0 0
M  V30 34 C -7.417 -3.7748 0.0 0
M  V30 35 C -7.7771 -5.469 0.0 0
M  V30 36 C -6.4899 -6.6279 0.0 0
M  V30 37 O -6.7478 -3.0316 0.0 0
M  V30 38 O -8.3951 -3.5669 0.0 0
M  V30 39 C -7.4681 -6.42 0.0 0
M  V30 END ATOM
M  V30 BEGIN BOND
M  V30 1 1 1 2
M  V30 2 2 2 3
M  V30 3 1 2 4
M  V30 4 1 3 5
M  V30 5 2 4 6
M  V30 6 2 5 7
M  V30 7 1 7 8
M  V30 8 1 8 9
M  V30 9 1 8 10 CFG=1
M  V30 10 1 9 11
M  V30 11 2 11 12
M  V30 12 1 11 13
M  V30 13 2 13 14
M  V30 14 1 13 15
M  V30 15 1 14 16
M  V30 16 2 15 17
M  V30 17 2 16 18
M  V30 18 1 16 19
M  V30 19 1 18 20
M  V30 20 2 19 21
M  V30 21 1 19 22
M  V30 22 1 20 23
M  V30 23 1 21 24
M  V30 24 1 23 25
M  V30 25 2 25 26
M  V30 26 1 25 27
M  V30 27 1 26 28
M  V30 28 2 27 29
M  V30 29 2 28 30
M  V30 30 1 30 31
M  V30 31 2 31 32
M  V30 32 1 31 33
M  V30 33 1 32 34
M  V30 34 1 32 35
M  V30 35 2 33 36
M  V30 36 2 34 37
M  V30 37 1 34 38
M  V30 38 2 35 39
M  V30 39 1 6 7
M  V30 40 1 17 18
M  V30 41 1 20 21
M  V30 42 1 29 30
M  V30 43 1 36 39
M  V30 END BOND
M  V30 BEGIN COLLECTION
M  V30 MDLV30/STEABS ATOMS=(1 8)
M  V30 END COLLECTION
M  V30 END CTAB
M  END
>  <Molecule ChEMBL ID>
CHEMBL3695760

>  <Smiles>
Cc1c(C)n(Cc2ccc(-c3ccccc3C(=O)O)cc2)c2ccc(C(=O)N[C@@H](C)c3ccc(Br)cc3)cc12

>  <IC50_nM>
28

>  <Assay Description>
Lanthascreen Competitive Binding Assay: The assay was performed according to manufacturer protocol. A mixture of nM GST-PPARG-LBD, 5 nM Tb-GST-antibody, 5 nM Fluormone Pan-PPAR Green, and serial dilutions of the experimental compound, beginning at 10 ׬M downwards, was added to wells of black 384-well low-volume plates (Greiner) to a total volume of 18 ׬L. All dilutions were made in TR-FRET assay buffer C. DMSO at 2% final concentration was used as a no-ligand control. Experiment was performed in triplicate, and incubated for 2 hours in the dark prior to assay read in Perkin Elmer ViewLux ultra HTS microplate reader. FRET signal was measured by excitation at 340 nm and emission at 520 nm for fluorescein and 490 nm for terbium. Fold change over DMSO was calculated using GraphPad Prism Software (La Jolla, Calif.) by calculating 520 nm/490 nm ratio. Graphs were plotted as fold change of FRET signal for compound treatment over DMSO-only control.

$$$$
CHEMBL3695760
Actelion Java MolfileCreator 2.0

  0  0  0  0  0  0              0 V3000
M  V30 BEGIN CTAB
M  V30 COUNTS 39 43 0 0 0
M  V30 BEGIN ATOM
M  V30 1 Br 6.0621 -1.9999 0.0 0
M  V30 2 C 5.1961 -1.4999 0.0 0
M  V30 3 C 5.1961 -0.5 0.0 0
M  V30 4 C 4.3301 -1.9999 0.0 0
M  V30 5 C 4.3301 0.0 0.0 0
M  V30 6 C 3.4641 -1.5 0.0 0
M  V30 7 C 3.4641 -0.5 0.0 0
M  V30 8 C 2.598 0.0 0.0 0 CFG=1
M  V30 9 N 1.732 -0.5 0.0 0
M  V30 10 C 2.598 1.0 0.0 0
M  V30 11 C 0.866 0.0 0.0 0
M  V30 12 O 0.866 1.0 0.0 0
M  V30 13 C 0.0 -0.5 0.0 0
M  V30 14 C 0.0 -1.4999 0.0 0
M  V30 15 C -0.866 0.0 0.0 0
M  V30 16 C -0.866 -1.9999 0.0 0
M  V30 17 C -1.732 -0.4999 0.0 0
M  V30 18 C -1.732 -1.4999 0.0 0
M  V30 19 C -1.0739 -2.9781 0.0 0
M  V30 20 N -2.4751 -2.1691 0.0 0
M  V30 21 C -2.0684 -3.0826 0.0 0
M  V30 22 C -0.4048 -3.7212 0.0 0
M  V30 23 C -3.4533 -1.9612 0.0 0
M  V30 24 C -2.5684 -3.9487 0.0 0
M  V30 25 C -4.1224 -2.7043 0.0 0
M  V30 26 C -5.1006 -2.4964 0.0 0
M  V30 27 C -3.8134 -3.6554 0.0 0
M  V30 28 C -5.7697 -3.2395 0.0 0
M  V30 29 C -4.4825 -4.3985 0.0 0
M  V30 30 C -5.4607 -4.1906 0.0 0
M  V30 31 C -6.1298 -4.9337 0.0 0
M  V30 32 C -7.108 -4.7258 0.0 0
M  V30 33 C -5.8208 -5.8848 0.0 0
M  V30 34 C -7.417 -3.7748 0.0 0
M  V30 35 C -7.7771 -5.469 0.0 0
M  V30 36 C -6.4899 -6.6279 0.0 0
M  V30 37 O -6.7478 -3.0316 0.0 0
M  V30 38 O -8.3951 -3.5669 0.0 0
M  V30 39 C -7.4681 -6.42 0.0 0
M  V30 END ATOM
M  V30 BEGIN BOND
M  V30 1 1 1 2
M  V30 2 2 2 3
M  V30 3 1 2 4
M  V30 4 1 3 5
M  V30 5 2 4 6
M  V30 6 2 5 7
M  V30 7 1 7 8
M  V30 8 1 8 9
M  V30 9 1 8 10 CFG=1
M  V30 10 1 9 11
M  V30 11 2 11 12
M  V30 12 1 11 13
M  V30 13 2 13 14
M  V30 14 1 13 15
M  V30 15 1 14 16
M  V30 16 2 15 17
M  V30 17 2 16 18
M  V30 18 1 16 19
M  V30 19 1 18 20
M  V30 20 2 19 21
M  V30 21 1 19 22
M  V30 22 1 20 23
M  V30 23 1 21 24
M  V30 24 1 23 25
M  V30 25 2 25 26
M  V30 26 1 25 27
M  V30 27 1 26 28
M  V30 28 2 27 29
M  V30 29 2 28 30
M  V30 30 1 30 31
M  V30 31 2 31 32
M  V30 32 1 31 33
M  V30 33 1 32 34
M  V30 34 1 32 35
M  V30 35 2 33 36
M  V30 36 2 34 37
M  V30 37 1 34 38
M  V30 38 2 35 39
M  V30 39 1 6 7
M  V30 40 1 17 18
M  V30 41 1 20 21
M  V30 42 1 29 30
M  V30 43 1 36 39
M  V30 END BOND
M  V30 BEGIN COLLECTION
M  V30 MDLV30/STEABS ATOMS=(1 8)
M  V30 END COLLECTION
M  V30 END CTAB
M  END
>  <Molecule ChEMBL ID>
CHEMBL3695760

>  <Smiles>
Cc1c(C)n(Cc2ccc(-c3ccccc3C(=O)O)cc2)c2ccc(C(=O)N[C@@H](C)c3ccc(Br)cc3)cc12

>  <IC50_nM>
28

>  <Assay Description>
Binding affinity to GST-tagged PPAR-gamma-LBD (unknown origin) after 2 hrs by Lantha screen assay using fluormone Pan-PPAR green probe

$$$$
CHEMBL3695876
Actelion Java MolfileCreator 2.0

  0  0  0  0  0  0              0 V3000
M  V30 BEGIN CTAB
M  V30 COUNTS 40 44 0 0 0
M  V30 BEGIN ATOM
M  V30 1 F 7.0621 -3.0 0.0 0
M  V30 2 C 6.0621 -3.0 0.0 0
M  V30 3 F 6.0621 -4.0 0.0 0
M  V30 4 F 5.0621 -2.9999 0.0 0
M  V30 5 O 6.0621 -1.9999 0.0 0
M  V30 6 C 5.1961 -1.4999 0.0 0
M  V30 7 C 5.1961 -0.5 0.0 0
M  V30 8 C 4.3301 -1.9999 0.0 0
M  V30 9 C 4.3301 0.0 0.0 0
M  V30 10 C 3.4641 -1.5 0.0 0
M  V30 11 C 3.4641 -0.5 0.0 0
M  V30 12 C 2.598 0.0 0.0 0 CFG=1
M  V30 13 N 1.732 -0.5 0.0 0
M  V30 14 C 2.598 1.0 0.0 0
M  V30 15 C 0.866 0.0 0.0 0
M  V30 16 O 0.866 1.0 0.0 0
M  V30 17 C 0.0 -0.5 0.0 0
M  V30 18 C 0.0 -1.4999 0.0 0
M  V30 19 C -0.866 0.0 0.0 0
M  V30 20 C -0.866 -1.9999 0.0 0
M  V30 21 C -1.732 -0.4999 0.0 0
M  V30 22 C -1.732 -1.4999 0.0 0
M  V30 23 C -1.0739 -2.9781 0.0 0
M  V30 24 N -2.4751 -2.1691 0.0 0
M  V30 25 C -2.0684 -3.0826 0.0 0
M  V30 26 C -0.4048 -3.7212 0.0 0
M  V30 27 C -3.4533 -1.9612 0.0 0
M  V30 28 C -2.5684 -3.9487 0.0 0
M  V30 29 C -4.1224 -2.7043 0.0 0
M  V30 30 C -5.1006 -2.4964 0.0 0
M  V30 31 C -3.8134 -3.6554 0.0 0
M  V30 32 C -5.7697 -3.2395 0.0 0
M  V30 33 C -4.4825 -4.3985 0.0 0
M  V30 34 C -5.4607 -4.1906 0.0 0
M  V30 35 C -6.1298 -4.9337 0.0 0
M  V30 36 C -7.108 -4.7258 0.0 0
M  V30 37 C -5.8208 -5.8848 0.0 0
M  V30 38 C -7.7771 -5.469 0.0 0
M  V30 39 C -6.4899 -6.6279 0.0 0
M  V30 40 C -7.4681 -6.42 0.0 0
M  V30 END ATOM
M  V30 BEGIN BOND
M  V30 1 1 1 2
M  V30 2 1 2 3
M  V30 3 1 2 4
M  V30 4 1 2 5
M  V30 5 1 5 6
M  V30 6 2 6 7
M  V30 7 1 6 8
M  V30 8 1 7 9
M  V30 9 2 8 10
M  V30 10 2 9 11
M  V30 11 1 11 12
M  V30 12 1 12 13
M  V30 13 1 12 14 CFG=1
M  V30 14 1 13 15
M  V30 15 2 15 16
M  V30 16 1 15 17
M  V30 17 2 17 18
M  V30 18 1 17 19
M  V30 19 1 18 20
M  V30 20 2 19 21
M  V30 21 2 20 22
M  V30 22 1 20 23
M  V30 23 1 22 24
M  V30 24 2 23 25
M  V30 25 1 23 26
M  V30 26 1 24 27
M  V30 27 1 25 28
M  V30 28 1 27 29
M  V30 29 2 29 30
M  V30 30 1 29 31
M  V30 31 1 30 32
M  V30 32 2 31 33
M  V30 33 2 32 34
M  V30 34 1 34 35
M  V30 35 2 35 36
M  V30 36 1 35 37
M  V30 37 1 36 38
M  V30 38 2 37 39
M  V30 39 2 38 40
M  V30 40 1 10 11
M  V30 41 1 21 22
M  V30 42 1 24 25
M  V30 43 1 33 34
M  V30 44 1 39 40
M  V30 END BOND
M  V30 BEGIN COLLECTION
M  V30 MDLV30/STEABS ATOMS=(1 12)
M  V30 END COLLECTION
M  V30 END CTAB
M  END
>  <Molecule ChEMBL ID>
CHEMBL3695876

>  <Smiles>
Cc1c(C)n(Cc2ccc(-c3ccccc3)cc2)c2ccc(C(=O)N[C@@H](C)c3ccc(OC(F)(F)F)cc3)cc12

>  <IC50_nM>
28

>  <Assay Description>
Lanthascreen Competitive Binding Assay: The assay was performed according to manufacturer protocol. A mixture of nM GST-PPARG-LBD, 5 nM Tb-GST-antibody, 5 nM Fluormone Pan-PPAR Green, and serial dilutions of the experimental compound, beginning at 10 ׬M downwards, was added to wells of black 384-well low-volume plates (Greiner) to a total volume of 18 ׬L. All dilutions were made in TR-FRET assay buffer C. DMSO at 2% final concentration was used as a no-ligand control. Experiment was performed in triplicate, and incubated for 2 hours in the dark prior to assay read in Perkin Elmer ViewLux ultra HTS microplate reader. FRET signal was measured by excitation at 340 nm and emission at 520 nm for fluorescein and 490 nm for terbium. Fold change over DMSO was calculated using GraphPad Prism Software (La Jolla, Calif.) by calculating 520 nm/490 nm ratio. Graphs were plotted as fold change of FRET signal for compound treatment over DMSO-only control.

$$$$
CHEMBL365387
Actelion Java MolfileCreator 2.0

  0  0  0  0  0  0              0 V3000
M  V30 BEGIN CTAB
M  V30 COUNTS 40 44 0 0 0
M  V30 BEGIN ATOM
M  V30 1 F 4.8174 -4.7021 0.0 0
M  V30 2 C 5.0253 -3.7239 0.0 0
M  V30 3 F 4.0471 -3.516 0.0 0
M  V30 4 F 5.2332 -2.7458 0.0 0
M  V30 5 O 6.0034 -3.9318 0.0 0
M  V30 6 C 6.6726 -3.1887 0.0 0
M  V30 7 C 6.3636 -2.2376 0.0 0
M  V30 8 C 7.6507 -3.3966 0.0 0
M  V30 9 C 7.0327 -1.4945 0.0 0
M  V30 10 C 8.3198 -2.6534 0.0 0
M  V30 11 C 8.0108 -1.7024 0.0 0
M  V30 12 C 6.9282 -0.5 0.0 0
M  V30 13 N 8.5108 -0.8364 0.0 0
M  V30 14 C 7.8417 -0.0932 0.0 0
M  V30 15 C 6.0621 0.0 0.0 0
M  V30 16 C 9.5054 -0.7318 0.0 0
M  V30 17 C 8.0496 0.8848 0.0 0
M  V30 18 C 5.1961 -0.5 0.0 0
M  V30 19 C 10.0931 -1.5408 0.0 0
M  V30 20 C 9.9121 0.1816 0.0 0
M  V30 21 C 4.3301 0.0 0.0 0
M  V30 22 C 5.1961 -1.4999 0.0 0
M  V30 23 N 11.0877 -1.4363 0.0 0
M  V30 24 C 10.9066 0.2861 0.0 0
M  V30 25 C 3.4641 -0.5 0.0 0
M  V30 26 C 4.3301 -1.9999 0.0 0
M  V30 27 C 11.4944 -0.5228 0.0 0
M  V30 28 C 11.3133 1.1997 0.0 0
M  V30 29 O 2.598 0.0 0.0 0
M  V30 30 C 3.4641 -1.4999 0.0 0
M  V30 31 C 12.4889 -0.4182 0.0 0
M  V30 32 C 12.3079 1.3042 0.0 0
M  V30 33 C 1.732 -0.5 0.0 0 CFG=2
M  V30 34 C 12.8957 0.4952 0.0 0
M  V30 35 O 12.7146 2.2178 0.0 0
M  V30 36 C 0.866 0.0 0.0 0
M  V30 37 C 1.732 -1.5 0.0 0
M  V30 38 C 12.1268 3.0268 0.0 0
M  V30 39 O 0.866 1.0 0.0 0
M  V30 40 O 0.0 -0.5 0.0 0
M  V30 END ATOM
M  V30 BEGIN BOND
M  V30 1 1 1 2
M  V30 2 1 2 3
M  V30 3 1 2 4
M  V30 4 1 2 5
M  V30 5 1 5 6
M  V30 6 2 6 7
M  V30 7 1 6 8
M  V30 8 1 7 9
M  V30 9 2 8 10
M  V30 10 2 9 11
M  V30 11 1 9 12
M  V30 12 1 11 13
M  V30 13 2 12 14
M  V30 14 1 12 15
M  V30 15 1 13 16
M  V30 16 1 14 17
M  V30 17 1 15 18
M  V30 18 1 16 19
M  V30 19 2 16 20
M  V30 20 2 18 21
M  V30 21 1 18 22
M  V30 22 2 19 23
M  V30 23 1 20 24
M  V30 24 1 21 25
M  V30 25 2 22 26
M  V30 26 1 23 27
M  V30 27 2 24 28
M  V30 28 1 25 29
M  V30 29 2 25 30
M  V30 30 2 27 31
M  V30 31 1 28 32
M  V30 32 1 29 33
M  V30 33 1 31 34
M  V30 34 1 32 35
M  V30 35 1 33 36
M  V30 36 1 33 37 CFG=1
M  V30 37 1 35 38
M  V30 38 2 36 39
M  V30 39 1 36 40
M  V30 40 1 10 11
M  V30 41 1 13 14
M  V30 42 1 24 27
M  V30 43 1 26 30
M  V30 44 2 32 34
M  V30 END BOND
M  V30 BEGIN COLLECTION
M  V30 MDLV30/STEABS ATOMS=(1 33)
M  V30 END COLLECTION
M  V30 END CTAB
M  END
>  <Molecule ChEMBL ID>
CHEMBL365387

>  <Smiles>
COc1ccc2ncc(-n3c(C)c(Cc4cccc(O[C@@H](C)C(=O)O)c4)c4cc(OC(F)(F)F)ccc43)cc2c1

>  <IC50_nM>
29

>  <Assay Description>
Inhibition of human peroxisome proliferator activated receptor gamma binding

$$$$
CHEMBL104850
Actelion Java MolfileCreator 2.0

  0  0  0  0  0  0              0 V3000
M  V30 BEGIN CTAB
M  V30 COUNTS 31 34 0 0 0
M  V30 BEGIN ATOM
M  V30 1 O 6.9282 -4.5 0.0 0
M  V30 2 C 6.9282 -3.5 0.0 0
M  V30 3 O 7.7942 -3.0 0.0 0
M  V30 4 C 6.0621 -3.0 0.0 0 CFG=1
M  V30 5 N 5.1961 -3.5 0.0 0
M  V30 6 C 6.0621 -1.9999 0.0 0
M  V30 7 C 4.2826 -3.0932 0.0 0
M  V30 8 C 5.0916 -4.4945 0.0 0
M  V30 9 C 5.1961 -1.4999 0.0 0
M  V30 10 C 3.6134 -3.8364 0.0 0
M  V30 11 C 4.1134 -4.7024 0.0 0
M  V30 12 C 5.1961 -0.5 0.0 0
M  V30 13 C 4.3301 -1.9999 0.0 0
M  V30 14 C 4.3301 0.0 0.0 0
M  V30 15 C 3.4641 -1.5 0.0 0
M  V30 16 C 3.4641 -0.5 0.0 0
M  V30 17 O 2.598 0.0 0.0 0
M  V30 18 C 1.732 -0.5 0.0 0
M  V30 19 C 0.866 0.0 0.0 0
M  V30 20 C 0.0 -0.5 0.0 0
M  V30 21 N -0.9135 -0.0932 0.0 0
M  V30 22 C -0.1045 -1.4945 0.0 0
M  V30 23 C -1.5826 -0.8364 0.0 0
M  V30 24 O -1.0826 -1.7024 0.0 0
M  V30 25 C 0.6386 -2.1636 0.0 0
M  V30 26 C -2.5771 -0.7318 0.0 0
M  V30 27 C -2.9839 0.1816 0.0 0
M  V30 28 C -3.1649 -1.5408 0.0 0
M  V30 29 C -3.9784 0.2861 0.0 0
M  V30 30 C -4.1595 -1.4363 0.0 0
M  V30 31 C -4.5662 -0.5228 0.0 0
M  V30 END ATOM
M  V30 BEGIN BOND
M  V30 1 2 1 2
M  V30 2 1 2 3
M  V30 3 1 2 4
M  V30 4 1 4 5 CFG=1
M  V30 5 1 4 6
M  V30 6 1 5 7
M  V30 7 1 5 8
M  V30 8 1 6 9
M  V30 9 2 7 10
M  V30 10 2 8 11
M  V30 11 2 9 12
M  V30 12 1 9 13
M  V30 13 1 12 14
M  V30 14 2 13 15
M  V30 15 2 14 16
M  V30 16 1 16 17
M  V30 17 1 17 18
M  V30 18 1 18 19
M  V30 19 1 19 20
M  V30 20 1 20 21
M  V30 21 2 20 22
M  V30 22 2 21 23
M  V30 23 1 22 24
M  V30 24 1 22 25
M  V30 25 1 23 26
M  V30 26 2 26 27
M  V30 27 1 26 28
M  V30 28 1 27 29
M  V30 29 2 28 30
M  V30 30 2 29 31
M  V30 31 1 10 11
M  V30 32 1 15 16
M  V30 33 1 23 24
M  V30 34 1 30 31
M  V30 END BOND
M  V30 BEGIN COLLECTION
M  V30 MDLV30/STEABS ATOMS=(1 4)
M  V30 END COLLECTION
M  V30 END CTAB
M  END
>  <Molecule ChEMBL ID>
CHEMBL104850

>  <Smiles>
Cc1oc(-c2ccccc2)nc1CCOc1ccc(C[C@@H](C(=O)O)n2cccc2)cc1

>  <IC50_nM>
29

>  <Assay Description>
Displacement of [3H]darglitazone from human PPARgamma by scintillation proximity assay

$$$$
CHEMBL3678099
Actelion Java MolfileCreator 2.0

  0  0  0  0  0  0              0 V3000
M  V30 BEGIN CTAB
M  V30 COUNTS 31 34 0 0 0
M  V30 BEGIN ATOM
M  V30 1 Cl 11.2348 3.0917 0.0 0
M  V30 2 C 10.2566 2.8838 0.0 0
M  V30 3 C 9.5875 3.6269 0.0 0
M  V30 4 C 9.9476 1.9327 0.0 0
M  V30 5 C 8.6094 3.419 0.0 0
M  V30 6 C 8.9695 1.7248 0.0 0
M  V30 7 C 8.3003 2.4679 0.0 0
M  V30 8 C 7.3222 2.26 0.0 0
M  V30 9 N 7.0132 1.309 0.0 0
M  V30 10 C 6.0621 0.9999 0.0 0
M  V30 11 C 7.601 0.5 0.0 0
M  V30 12 C 6.0621 0.0 0.0 0
M  V30 13 C 5.1961 1.4999 0.0 0
M  V30 14 C 7.0132 -0.309 0.0 0
M  V30 15 C 8.601 0.5 0.0 0
M  V30 16 C 5.1961 -0.5 0.0 0
M  V30 17 C 4.3301 0.9999 0.0 0
M  V30 18 C 7.3222 -1.26 0.0 0
M  V30 19 C 4.3301 0.0 0.0 0
M  V30 20 C 3.4641 -0.5 0.0 0
M  V30 21 O 3.4641 -1.5 0.0 0
M  V30 22 N 2.598 0.0 0.0 0
M  V30 23 C 1.732 -0.5 0.0 0 CFG=2
M  V30 24 C 1.732 -1.5 0.0 0
M  V30 25 C 0.866 0.0 0.0 0
M  V30 26 C 0.866 -1.9999 0.0 0
M  V30 27 C 2.598 -2.0 0.0 0
M  V30 28 C 0.0 -0.5 0.0 0
M  V30 29 C 0.866 -2.9999 0.0 0
M  V30 30 C 2.598 -3.0 0.0 0
M  V30 31 C 1.732 -3.5 0.0 0
M  V30 END ATOM
M  V30 BEGIN BOND
M  V30 1 1 1 2
M  V30 2 2 2 3
M  V30 3 1 2 4
M  V30 4 1 3 5
M  V30 5 2 4 6
M  V30 6 2 5 7
M  V30 7 1 7 8
M  V30 8 1 8 9
M  V30 9 1 9 10
M  V30 10 1 9 11
M  V30 11 2 10 12
M  V30 12 1 10 13
M  V30 13 2 11 14
M  V30 14 1 11 15
M  V30 15 1 12 16
M  V30 16 2 13 17
M  V30 17 1 14 18
M  V30 18 2 16 19
M  V30 19 1 19 20
M  V30 20 2 20 21
M  V30 21 1 20 22
M  V30 22 1 23 22 CFG=3
M  V30 23 1 23 24
M  V30 24 1 23 25
M  V30 25 2 24 26
M  V30 26 1 24 27
M  V30 27 1 25 28
M  V30 28 1 26 29
M  V30 29 2 27 30
M  V30 30 2 29 31
M  V30 31 1 6 7
M  V30 32 1 12 14
M  V30 33 1 17 19
M  V30 34 1 30 31
M  V30 END BOND
M  V30 BEGIN COLLECTION
M  V30 MDLV30/STERAC1 ATOMS=(1 23)
M  V30 END COLLECTION
M  V30 END CTAB
M  END
>  <Molecule ChEMBL ID>
CHEMBL3678099

>  <Smiles>
CCC(NC(=O)c1ccc2c(c1)c(C)c(C)n2Cc1ccc(Cl)cc1)c1ccccc1

>  <IC50_nM>
29

>  <Assay Description>
Lanthascreen Competitive Binding Assay: The assay was performed according to manufacturer protocol. A mixture of 5 nM GST-PPARG-LBD, 5 nM Tb-GST-antibody, 5 nM Fluormone Pan- PPAR Green, and serial dilutions of the experimental compound, beginning at 10 ׬� downwards, was added to wells of black 384-well low- volume plates (Greiner) to a total volume of 18 xL. All dilutions were made in TR-FRET assay buffer C. DMSO at 2% final concentration was used as a no-ligand control. Experiment was performed in triplicate, and incubated for 2 hours in the dark prior to assay read in Perkin Elmer ViewLux ultra HTS microplate reader. FRET signal was measured by excitation at 340 nm and emission at 520 nm for fluorescein and 490 nm for terbium.

$$$$
CHEMBL2037010
Actelion Java MolfileCreator 2.0

  0  0  0  0  0  0              0 V3000
M  V30 BEGIN CTAB
M  V30 COUNTS 35 38 0 0 0
M  V30 BEGIN ATOM
M  V30 1 S 8.7077 -0.4067 0.0 0
M  V30 2 C 9.3769 0.3364 0.0 0
M  V30 3 C 7.7942 0.0 0.0 0 CFG=1
M  V30 4 O 10.3714 0.2318 0.0 0
M  V30 5 N 8.8769 1.2024 0.0 0
M  V30 6 C 6.9282 -0.5 0.0 0
M  V30 7 C 7.8987 0.9945 0.0 0
M  V30 8 C 6.0621 0.0 0.0 0
M  V30 9 C 6.9282 -1.5 0.0 0
M  V30 10 O 7.1556 1.6636 0.0 0
M  V30 11 C 5.1961 -0.5 0.0 0
M  V30 12 C 6.0621 -2.0 0.0 0
M  V30 13 O 4.3301 0.0 0.0 0
M  V30 14 C 5.1961 -1.5 0.0 0
M  V30 15 C 3.4641 -0.5 0.0 0
M  V30 16 C 2.598 0.0 0.0 0
M  V30 17 C 1.732 -0.5 0.0 0
M  V30 18 O 0.866 0.0 0.0 0
M  V30 19 C 0.0 -0.5 0.0 0
M  V30 20 C -0.866 0.0 0.0 0
M  V30 21 C 0.0 -1.4999 0.0 0
M  V30 22 C -1.732 -0.4999 0.0 0
M  V30 23 C -0.866 1.0 0.0 0
M  V30 24 C -0.866 -1.9999 0.0 0
M  V30 25 C -1.732 -1.4999 0.0 0
M  V30 26 C 0.0 1.5 0.0 0
M  V30 27 O -2.598 -1.9999 0.0 0
M  V30 28 C 0.0 2.5 0.0 0
M  V30 29 C -2.598 -2.9999 0.0 0
M  V30 30 C -3.4641 -3.4999 0.0 0
M  V30 31 C -1.732 -3.4999 0.0 0
M  V30 32 C -3.4641 -4.4999 0.0 0
M  V30 33 C -1.732 -4.4999 0.0 0
M  V30 34 C -2.598 -4.9999 0.0 0
M  V30 35 O -2.598 -5.9999 0.0 0
M  V30 END ATOM
M  V30 BEGIN BOND
M  V30 1 1 1 2
M  V30 2 1 1 3
M  V30 3 2 2 4
M  V30 4 1 2 5
M  V30 5 1 3 6 CFG=1
M  V30 6 1 3 7
M  V30 7 2 6 8
M  V30 8 1 6 9
M  V30 9 2 7 10
M  V30 10 1 8 11
M  V30 11 2 9 12
M  V30 12 1 11 13
M  V30 13 2 11 14
M  V30 14 1 13 15
M  V30 15 1 15 16
M  V30 16 1 16 17
M  V30 17 1 17 18
M  V30 18 1 18 19
M  V30 19 2 19 20
M  V30 20 1 19 21
M  V30 21 1 20 22
M  V30 22 1 20 23
M  V30 23 2 21 24
M  V30 24 2 22 25
M  V30 25 1 23 26
M  V30 26 1 25 27
M  V30 27 1 26 28
M  V30 28 1 27 29
M  V30 29 2 29 30
M  V30 30 1 29 31
M  V30 31 1 30 32
M  V30 32 2 31 33
M  V30 33 2 32 34
M  V30 34 1 34 35
M  V30 35 1 5 7
M  V30 36 1 12 14
M  V30 37 1 24 25
M  V30 38 1 33 34
M  V30 END BOND
M  V30 BEGIN COLLECTION
M  V30 MDLV30/STEABS ATOMS=(1 3)
M  V30 END COLLECTION
M  V30 END CTAB
M  END
>  <Molecule ChEMBL ID>
CHEMBL2037010

>  <Smiles>
CCCc1cc(Oc2ccc(O)cc2)ccc1OCCCOc1cccc([C@@H]2SC(=O)NC2=O)c1

>  <IC50_nM>
29.99

>  <Assay Description>
Agonist activity at PPARgamma

$$$$
CHEMBL2037182
Actelion Java MolfileCreator 2.0

  0  0  0  0  0  0              0 V3000
M  V30 BEGIN CTAB
M  V30 COUNTS 36 40 0 0 0
M  V30 BEGIN ATOM
M  V30 1 S 8.7077 -0.4067 0.0 0
M  V30 2 C 9.3769 0.3364 0.0 0
M  V30 3 C 7.7942 0.0 0.0 0 CFG=1
M  V30 4 O 10.3714 0.2318 0.0 0
M  V30 5 N 8.8769 1.2024 0.0 0
M  V30 6 C 6.9282 -0.5 0.0 0
M  V30 7 C 7.8987 0.9945 0.0 0
M  V30 8 C 6.0621 0.0 0.0 0
M  V30 9 C 6.9282 -1.5 0.0 0
M  V30 10 O 7.1556 1.6636 0.0 0
M  V30 11 C 5.1961 -0.5 0.0 0
M  V30 12 C 6.0621 -2.0 0.0 0
M  V30 13 O 4.3301 0.0 0.0 0
M  V30 14 C 5.1961 -1.5 0.0 0
M  V30 15 C 3.4641 -0.5 0.0 0
M  V30 16 C 2.598 0.0 0.0 0
M  V30 17 C 1.732 -0.5 0.0 0
M  V30 18 O 0.866 0.0 0.0 0
M  V30 19 C 0.0 -0.5 0.0 0
M  V30 20 C -0.866 0.0 0.0 0
M  V30 21 C 0.0 -1.4999 0.0 0
M  V30 22 C -1.732 -0.4999 0.0 0
M  V30 23 C -0.866 1.0 0.0 0
M  V30 24 C -0.866 -1.9999 0.0 0
M  V30 25 C -1.732 -1.4999 0.0 0
M  V30 26 C 0.0 1.5 0.0 0
M  V30 27 C -2.598 -1.9999 0.0 0
M  V30 28 C 0.0 2.5 0.0 0
M  V30 29 N -3.5116 -1.5932 0.0 0
M  V30 30 C -2.7026 -2.9945 0.0 0
M  V30 31 O -4.1807 -2.3364 0.0 0
M  V30 32 C -3.6807 -3.2024 0.0 0
M  V30 33 C -2.0334 -3.7376 0.0 0
M  V30 34 C -3.9897 -4.1534 0.0 0
M  V30 35 C -2.3424 -4.6887 0.0 0
M  V30 36 C -3.3206 -4.8966 0.0 0
M  V30 END ATOM
M  V30 BEGIN BOND
M  V30 1 1 1 2
M  V30 2 1 1 3
M  V30 3 2 2 4
M  V30 4 1 2 5
M  V30 5 1 3 6 CFG=1
M  V30 6 1 3 7
M  V30 7 2 6 8
M  V30 8 1 6 9
M  V30 9 2 7 10
M  V30 10 1 8 11
M  V30 11 2 9 12
M  V30 12 1 11 13
M  V30 13 2 11 14
M  V30 14 1 13 15
M  V30 15 1 15 16
M  V30 16 1 16 17
M  V30 17 1 17 18
M  V30 18 1 18 19
M  V30 19 2 19 20
M  V30 20 1 19 21
M  V30 21 1 20 22
M  V30 22 1 20 23
M  V30 23 2 21 24
M  V30 24 2 22 25
M  V30 25 1 23 26
M  V30 26 1 25 27
M  V30 27 1 26 28
M  V30 28 2 27 29
M  V30 29 1 27 30
M  V30 30 1 29 31
M  V30 31 2 30 32
M  V30 32 1 30 33
M  V30 33 1 32 34
M  V30 34 2 33 35
M  V30 35 2 34 36
M  V30 36 1 5 7
M  V30 37 1 12 14
M  V30 38 1 24 25
M  V30 39 1 31 32
M  V30 40 1 35 36
M  V30 END BOND
M  V30 BEGIN COLLECTION
M  V30 MDLV30/STEABS ATOMS=(1 3)
M  V30 END COLLECTION
M  V30 END CTAB
M  END
>  <Molecule ChEMBL ID>
CHEMBL2037182

>  <Smiles>
CCCc1cc(-c2noc3ccccc23)ccc1OCCCOc1cccc([C@@H]2SC(=O)NC2=O)c1

>  <IC50_nM>
29.99

>  <Assay Description>
Agonist activity at PPARgamma

$$$$
CHEMBL121106
Actelion Java MolfileCreator 2.0

  0  0  0  0  0  0              0 V3000
M  V30 BEGIN CTAB
M  V30 COUNTS 25 27 0 0 0
M  V30 BEGIN ATOM
M  V30 1 S 7.8987 0.0054 0.0 0
M  V30 2 C 8.8769 -0.2024 0.0 0
M  V30 3 C 7.7942 0.9999 0.0 0 CFG=2
M  V30 4 O 9.2836 -1.1159 0.0 0
M  V30 5 N 9.3769 0.6635 0.0 0
M  V30 6 C 8.7077 1.4067 0.0 0
M  V30 7 C 6.9282 1.4999 0.0 0
M  V30 8 O 8.9156 2.3848 0.0 0
M  V30 9 C 6.0621 0.9999 0.0 0
M  V30 10 C 5.1961 1.4999 0.0 0
M  V30 11 C 6.0621 0.0 0.0 0
M  V30 12 C 4.3301 0.9999 0.0 0
M  V30 13 C 5.1961 -0.5 0.0 0
M  V30 14 C 4.3301 0.0 0.0 0
M  V30 15 O 3.4641 -0.5 0.0 0
M  V30 16 C 2.598 0.0 0.0 0
M  V30 17 C 1.732 -0.5 0.0 0
M  V30 18 N 0.866 0.0 0.0 0
M  V30 19 C 0.866 1.0 0.0 0
M  V30 20 C 0.0 -0.5 0.0 0
M  V30 21 N 1.732 1.4999 0.0 0
M  V30 22 C 0.0 1.4999 0.0 0
M  V30 23 C 1.732 2.5 0.0 0
M  V30 24 C 0.0 2.5 0.0 0
M  V30 25 C 0.866 3.0 0.0 0
M  V30 END ATOM
M  V30 BEGIN BOND
M  V30 1 1 1 2
M  V30 2 1 1 3
M  V30 3 2 2 4
M  V30 4 1 2 5
M  V30 5 1 3 6
M  V30 6 1 3 7 CFG=1
M  V30 7 2 6 8
M  V30 8 1 7 9
M  V30 9 2 9 10
M  V30 10 1 9 11
M  V30 11 1 10 12
M  V30 12 2 11 13
M  V30 13 2 12 14
M  V30 14 1 14 15
M  V30 15 1 15 16
M  V30 16 1 16 17
M  V30 17 1 17 18
M  V30 18 1 18 19
M  V30 19 1 18 20
M  V30 20 2 19 21
M  V30 21 1 19 22
M  V30 22 1 21 23
M  V30 23 2 22 24
M  V30 24 2 23 25
M  V30 25 1 5 6
M  V30 26 1 13 14
M  V30 27 1 24 25
M  V30 END BOND
M  V30 BEGIN COLLECTION
M  V30 MDLV30/STEABS ATOMS=(1 3)
M  V30 END COLLECTION
M  V30 END CTAB
M  END
>  <Molecule ChEMBL ID>
CHEMBL121106

>  <Smiles>
CN(CCOc1ccc(C[C@@H]2SC(=O)NC2=O)cc1)c1ccccn1

>  <IC50_nM>
30

>  <Assay Description>
Initial binding affinity against PPAR-gamma receptor

$$$$
CHEMBL3695860
Actelion Java MolfileCreator 2.0

  0  0  0  0  0  0              0 V3000
M  V30 BEGIN CTAB
M  V30 COUNTS 38 42 0 0 0
M  V30 BEGIN ATOM
M  V30 1 O 5.1961 -0.7499 0.0 0
M  V30 2 C 3.8971 0.0 0.0 0
M  V30 3 N 2.598 -0.7499 0.0 0
M  V30 4 C 3.8971 1.5 0.0 0
M  V30 5 C 1.299 0.0 0.0 0 CFG=2
M  V30 6 C 2.598 2.25 0.0 0
M  V30 7 C 5.1961 2.25 0.0 0
M  V30 8 C 0.0 -0.7499 0.0 0
M  V30 9 C 1.299 1.5 0.0 0
M  V30 10 C 2.598 3.75 0.0 0
M  V30 11 C 5.1961 3.75 0.0 0
M  V30 12 C 0.0 -2.2499 0.0 0
M  V30 13 C -1.299 0.0 0.0 0
M  V30 14 C 3.8971 4.5 0.0 0
M  V30 15 C 1.4833 4.7536 0.0 0
M  V30 16 C -1.299 -2.9999 0.0 0
M  V30 17 C -2.598 -0.7499 0.0 0
M  V30 18 N 3.5852 5.9672 0.0 0
M  V30 19 C 2.0934 6.124 0.0 0
M  V30 20 C 0.0161 4.4418 0.0 0
M  V30 21 C -2.598 -2.2499 0.0 0
M  V30 22 C -1.299 -4.4999 0.0 0
M  V30 23 C 4.5889 7.0819 0.0 0
M  V30 24 C 1.3434 7.423 0.0 0
M  V30 25 C 0.0 -5.2499 0.0 0
M  V30 26 C -2.598 -5.2499 0.0 0
M  V30 27 C 4.1254 8.5085 0.0 0
M  V30 28 C 5.1291 9.6232 0.0 0
M  V30 29 C 2.6581 8.8203 0.0 0
M  V30 30 C 4.6655 11.0498 0.0 0
M  V30 31 C 2.1946 10.2469 0.0 0
M  V30 32 C 3.1983 11.3616 0.0 0
M  V30 33 C 2.7348 12.7882 0.0 0
M  V30 34 C 3.7385 13.9029 0.0 0
M  V30 35 C 1.2676 13.1001 0.0 0
M  V30 36 C 3.275 15.3295 0.0 0
M  V30 37 C 0.804 14.5267 0.0 0
M  V30 38 C 1.8077 15.6414 0.0 0
M  V30 END ATOM
M  V30 BEGIN BOND
M  V30 1 2 1 2
M  V30 2 1 2 3
M  V30 3 1 2 4
M  V30 4 1 3 5
M  V30 5 2 4 6
M  V30 6 1 4 7
M  V30 7 1 5 8
M  V30 8 1 5 9 CFG=3
M  V30 9 1 6 10
M  V30 10 2 7 11
M  V30 11 2 8 12
M  V30 12 1 8 13
M  V30 13 2 10 14
M  V30 14 1 10 15
M  V30 15 1 12 16
M  V30 16 2 13 17
M  V30 17 1 14 18
M  V30 18 2 15 19
M  V30 19 1 15 20
M  V30 20 2 16 21
M  V30 21 1 16 22
M  V30 22 1 18 23
M  V30 23 1 19 24
M  V30 24 1 22 25
M  V30 25 1 22 26
M  V30 26 1 23 27
M  V30 27 2 27 28
M  V30 28 1 27 29
M  V30 29 1 28 30
M  V30 30 2 29 31
M  V30 31 2 30 32
M  V30 32 1 32 33
M  V30 33 2 33 34
M  V30 34 1 33 35
M  V30 35 1 34 36
M  V30 36 2 35 37
M  V30 37 2 36 38
M  V30 38 1 11 14
M  V30 39 1 17 21
M  V30 40 1 18 19
M  V30 41 1 31 32
M  V30 42 1 37 38
M  V30 END BOND
M  V30 BEGIN COLLECTION
M  V30 MDLV30/STEABS ATOMS=(1 5)
M  V30 END COLLECTION
M  V30 END CTAB
M  END
>  <Molecule ChEMBL ID>
CHEMBL3695860

>  <Smiles>
Cc1c(C)n(Cc2ccc(-c3ccccc3)cc2)c2ccc(C(=O)N[C@@H](C)c3cccc(C(C)C)c3)cc12

>  <IC50_nM>
30

>  <Assay Description>
Lanthascreen Competitive Binding Assay: The assay was performed according to manufacturer protocol. A mixture of nM GST-PPARG-LBD, 5 nM Tb-GST-antibody, 5 nM Fluormone Pan-PPAR Green, and serial dilutions of the experimental compound, beginning at 10 ׬M downwards, was added to wells of black 384-well low-volume plates (Greiner) to a total volume of 18 ׬L. All dilutions were made in TR-FRET assay buffer C. DMSO at 2% final concentration was used as a no-ligand control. Experiment was performed in triplicate, and incubated for 2 hours in the dark prior to assay read in Perkin Elmer ViewLux ultra HTS microplate reader. FRET signal was measured by excitation at 340 nm and emission at 520 nm for fluorescein and 490 nm for terbium. Fold change over DMSO was calculated using GraphPad Prism Software (La Jolla, Calif.) by calculating 520 nm/490 nm ratio. Graphs were plotted as fold change of FRET signal for compound treatment over DMSO-only control.

$$$$
CHEMBL2037010
Actelion Java MolfileCreator 2.0

  0  0  0  0  0  0              0 V3000
M  V30 BEGIN CTAB
M  V30 COUNTS 35 38 0 0 0
M  V30 BEGIN ATOM
M  V30 1 S 8.7077 -0.4067 0.0 0
M  V30 2 C 9.3769 0.3364 0.0 0
M  V30 3 C 7.7942 0.0 0.0 0 CFG=1
M  V30 4 O 10.3714 0.2318 0.0 0
M  V30 5 N 8.8769 1.2024 0.0 0
M  V30 6 C 6.9282 -0.5 0.0 0
M  V30 7 C 7.8987 0.9945 0.0 0
M  V30 8 C 6.0621 0.0 0.0 0
M  V30 9 C 6.9282 -1.5 0.0 0
M  V30 10 O 7.1556 1.6636 0.0 0
M  V30 11 C 5.1961 -0.5 0.0 0
M  V30 12 C 6.0621 -2.0 0.0 0
M  V30 13 O 4.3301 0.0 0.0 0
M  V30 14 C 5.1961 -1.5 0.0 0
M  V30 15 C 3.4641 -0.5 0.0 0
M  V30 16 C 2.598 0.0 0.0 0
M  V30 17 C 1.732 -0.5 0.0 0
M  V30 18 O 0.866 0.0 0.0 0
M  V30 19 C 0.0 -0.5 0.0 0
M  V30 20 C -0.866 0.0 0.0 0
M  V30 21 C 0.0 -1.4999 0.0 0
M  V30 22 C -1.732 -0.4999 0.0 0
M  V30 23 C -0.866 1.0 0.0 0
M  V30 24 C -0.866 -1.9999 0.0 0
M  V30 25 C -1.732 -1.4999 0.0 0
M  V30 26 C 0.0 1.5 0.0 0
M  V30 27 O -2.598 -1.9999 0.0 0
M  V30 28 C 0.0 2.5 0.0 0
M  V30 29 C -2.598 -2.9999 0.0 0
M  V30 30 C -3.4641 -3.4999 0.0 0
M  V30 31 C -1.732 -3.4999 0.0 0
M  V30 32 C -3.4641 -4.4999 0.0 0
M  V30 33 C -1.732 -4.4999 0.0 0
M  V30 34 C -2.598 -4.9999 0.0 0
M  V30 35 O -2.598 -5.9999 0.0 0
M  V30 END ATOM
M  V30 BEGIN BOND
M  V30 1 1 1 2
M  V30 2 1 1 3
M  V30 3 2 2 4
M  V30 4 1 2 5
M  V30 5 1 3 6 CFG=1
M  V30 6 1 3 7
M  V30 7 2 6 8
M  V30 8 1 6 9
M  V30 9 2 7 10
M  V30 10 1 8 11
M  V30 11 2 9 12
M  V30 12 1 11 13
M  V30 13 2 11 14
M  V30 14 1 13 15
M  V30 15 1 15 16
M  V30 16 1 16 17
M  V30 17 1 17 18
M  V30 18 1 18 19
M  V30 19 2 19 20
M  V30 20 1 19 21
M  V30 21 1 20 22
M  V30 22 1 20 23
M  V30 23 2 21 24
M  V30 24 2 22 25
M  V30 25 1 23 26
M  V30 26 1 25 27
M  V30 27 1 26 28
M  V30 28 1 27 29
M  V30 29 2 29 30
M  V30 30 1 29 31
M  V30 31 1 30 32
M  V30 32 2 31 33
M  V30 33 2 32 34
M  V30 34 1 34 35
M  V30 35 1 5 7
M  V30 36 1 12 14
M  V30 37 1 24 25
M  V30 38 1 33 34
M  V30 END BOND
M  V30 BEGIN COLLECTION
M  V30 MDLV30/STEABS ATOMS=(1 3)
M  V30 END COLLECTION
M  V30 END CTAB
M  END
>  <Molecule ChEMBL ID>
CHEMBL2037010

>  <Smiles>
CCCc1cc(Oc2ccc(O)cc2)ccc1OCCCOc1cccc([C@@H]2SC(=O)NC2=O)c1

>  <IC50_nM>
30

>  <Assay Description>
Agonist activity at PPARgamma

$$$$
CHEMBL418874
Actelion Java MolfileCreator 2.0

  0  0  0  0  0  0              0 V3000
M  V30 BEGIN CTAB
M  V30 COUNTS 36 40 0 0 0
M  V30 BEGIN ATOM
M  V30 1 S 8.7077 -0.4067 0.0 0
M  V30 2 C 9.3769 0.3364 0.0 0
M  V30 3 C 7.7942 0.0 0.0 0 CFG=2
M  V30 4 O 10.3714 0.2318 0.0 0
M  V30 5 N 8.8769 1.2024 0.0 0
M  V30 6 C 6.9282 -0.5 0.0 0
M  V30 7 C 7.8987 0.9945 0.0 0
M  V30 8 C 6.0621 0.0 0.0 0
M  V30 9 C 6.9282 -1.5 0.0 0
M  V30 10 O 7.1556 1.6636 0.0 0
M  V30 11 C 5.1961 -0.5 0.0 0
M  V30 12 C 6.0621 -2.0 0.0 0
M  V30 13 O 4.3301 0.0 0.0 0
M  V30 14 C 5.1961 -1.5 0.0 0
M  V30 15 C 3.4641 -0.5 0.0 0
M  V30 16 C 2.598 0.0 0.0 0
M  V30 17 C 1.732 -0.5 0.0 0
M  V30 18 O 0.866 0.0 0.0 0
M  V30 19 C 0.0 -0.5 0.0 0
M  V30 20 C -0.866 0.0 0.0 0
M  V30 21 C 0.0 -1.4999 0.0 0
M  V30 22 C -1.732 -0.4999 0.0 0
M  V30 23 C -0.866 1.0 0.0 0
M  V30 24 C -0.866 -1.9999 0.0 0
M  V30 25 C -1.732 -1.4999 0.0 0
M  V30 26 C 0.0 1.5 0.0 0
M  V30 27 C -2.598 -1.9999 0.0 0
M  V30 28 C 0.0 2.5 0.0 0
M  V30 29 N -3.5116 -1.5932 0.0 0
M  V30 30 C -2.7026 -2.9945 0.0 0
M  V30 31 O -4.1807 -2.3364 0.0 0
M  V30 32 C -3.6807 -3.2024 0.0 0
M  V30 33 C -2.0334 -3.7376 0.0 0
M  V30 34 C -3.9897 -4.1534 0.0 0
M  V30 35 C -2.3424 -4.6887 0.0 0
M  V30 36 C -3.3206 -4.8966 0.0 0
M  V30 END ATOM
M  V30 BEGIN BOND
M  V30 1 1 1 2
M  V30 2 1 1 3
M  V30 3 2 2 4
M  V30 4 1 2 5
M  V30 5 1 3 6 CFG=3
M  V30 6 1 3 7
M  V30 7 2 6 8
M  V30 8 1 6 9
M  V30 9 2 7 10
M  V30 10 1 8 11
M  V30 11 2 9 12
M  V30 12 1 11 13
M  V30 13 2 11 14
M  V30 14 1 13 15
M  V30 15 1 15 16
M  V30 16 1 16 17
M  V30 17 1 17 18
M  V30 18 1 18 19
M  V30 19 2 19 20
M  V30 20 1 19 21
M  V30 21 1 20 22
M  V30 22 1 20 23
M  V30 23 2 21 24
M  V30 24 2 22 25
M  V30 25 1 23 26
M  V30 26 1 25 27
M  V30 27 1 26 28
M  V30 28 2 27 29
M  V30 29 1 27 30
M  V30 30 1 29 31
M  V30 31 2 30 32
M  V30 32 1 30 33
M  V30 33 1 32 34
M  V30 34 2 33 35
M  V30 35 2 34 36
M  V30 36 1 5 7
M  V30 37 1 12 14
M  V30 38 1 24 25
M  V30 39 1 31 32
M  V30 40 1 35 36
M  V30 END BOND
M  V30 BEGIN COLLECTION
M  V30 MDLV30/STERAC1 ATOMS=(1 3)
M  V30 END COLLECTION
M  V30 END CTAB
M  END
>  <Molecule ChEMBL ID>
CHEMBL418874

>  <Smiles>
CCCc1cc(-c2noc3ccccc23)ccc1OCCCOc1cccc(C2SC(=O)NC2=O)c1

>  <IC50_nM>
30

>  <Assay Description>
In vitro binding affinity against human peroxisome proliferator activated receptor gamma

$$$$
CHEMBL482952
Actelion Java MolfileCreator 2.0

  0  0  0  0  0  0              0 V3000
M  V30 BEGIN CTAB
M  V30 COUNTS 33 36 0 0 0
M  V30 BEGIN ATOM
M  V30 1 O 4.3301 0.0 0.0 0
M  V30 2 C 3.4641 -0.5 0.0 0
M  V30 3 O 3.4641 -1.5 0.0 0
M  V30 4 C 2.598 0.0 0.0 0 CFG=1
M  V30 5 O 1.732 -0.5 0.0 0
M  V30 6 C 2.598 1.0 0.0 0
M  V30 7 C 0.866 0.0 0.0 0
M  V30 8 C 1.732 1.5 0.0 0
M  V30 9 C 0.0 -0.5 0.0 0
M  V30 10 C 1.732 2.5 0.0 0
M  V30 11 C 0.866 1.0 0.0 0
M  V30 12 C 0.866 3.0 0.0 0
M  V30 13 C 2.598 3.0 0.0 0
M  V30 14 C 0.0 1.5 0.0 0
M  V30 15 C 0.0 2.5 0.0 0
M  V30 16 C 0.866 4.0 0.0 0
M  V30 17 C 2.598 4.0 0.0 0
M  V30 18 O -0.866 3.0 0.0 0
M  V30 19 C 1.732 4.5 0.0 0
M  V30 20 C -1.732 2.5 0.0 0
M  V30 21 C -2.598 3.0 0.0 0
M  V30 22 C -3.4641 2.5 0.0 0
M  V30 23 N -4.3776 2.9067 0.0 0
M  V30 24 C -3.5686 1.5054 0.0 0
M  V30 25 C -5.0467 2.1635 0.0 0
M  V30 26 O -4.5467 1.2975 0.0 0
M  V30 27 C -2.8254 0.8363 0.0 0
M  V30 28 C -6.0412 2.2681 0.0 0
M  V30 29 C -6.448 3.1816 0.0 0
M  V30 30 C -6.629 1.4591 0.0 0
M  V30 31 C -7.4425 3.2861 0.0 0
M  V30 32 C -7.6236 1.5636 0.0 0
M  V30 33 C -8.0303 2.4771 0.0 0
M  V30 END ATOM
M  V30 BEGIN BOND
M  V30 1 2 1 2
M  V30 2 1 2 3
M  V30 3 1 2 4
M  V30 4 1 4 5 CFG=1
M  V30 5 1 4 6
M  V30 6 1 5 7
M  V30 7 1 6 8
M  V30 8 1 7 9
M  V30 9 1 8 10
M  V30 10 2 8 11
M  V30 11 1 10 12
M  V30 12 2 10 13
M  V30 13 1 11 14
M  V30 14 1 12 15
M  V30 15 2 12 16
M  V30 16 1 13 17
M  V30 17 1 15 18
M  V30 18 1 16 19
M  V30 19 1 18 20
M  V30 20 1 20 21
M  V30 21 1 21 22
M  V30 22 1 22 23
M  V30 23 2 22 24
M  V30 24 2 23 25
M  V30 25 1 24 26
M  V30 26 1 24 27
M  V30 27 1 25 28
M  V30 28 2 28 29
M  V30 29 1 28 30
M  V30 30 1 29 31
M  V30 31 2 30 32
M  V30 32 2 31 33
M  V30 33 2 14 15
M  V30 34 2 17 19
M  V30 35 1 25 26
M  V30 36 1 32 33
M  V30 END BOND
M  V30 BEGIN COLLECTION
M  V30 MDLV30/STERAC1 ATOMS=(1 4)
M  V30 END COLLECTION
M  V30 END CTAB
M  END
>  <Molecule ChEMBL ID>
CHEMBL482952

>  <Smiles>
CCOC(Cc1ccc(OCCc2nc(-c3ccccc3)oc2C)c2ccccc12)C(=O)O

>  <IC50_nM>
30

>  <Assay Description>
Displacement of radio labeled 2(S)-(2-benzoyl-phenylamino)-3-{4-[1,1-ditritio-2-(5-methyl-2-phenyl-oxazol-4-yl)-ethoxy]-phenyl}-propionic acid from GST-fused human PPARgamma expressed in Escherichia coli BL21 cells by scintillation proximity assay

$$$$
CHEMBL3736229
Actelion Java MolfileCreator 2.0

  0  0  0  0  0  0              0 V3000
M  V30 BEGIN CTAB
M  V30 COUNTS 41 45 0 0 0
M  V30 BEGIN ATOM
M  V30 1 O 11.8592 -3.5669 0.0 0
M  V30 2 C 10.8811 -3.7748 0.0 0
M  V30 3 O 10.212 -3.0316 0.0 0
M  V30 4 C 10.5721 -4.7258 0.0 0
M  V30 5 C 9.5939 -4.9337 0.0 0
M  V30 6 C 11.2412 -5.469 0.0 0
M  V30 7 C 8.9248 -4.1906 0.0 0
M  V30 8 C 9.2849 -5.8848 0.0 0
M  V30 9 C 10.9322 -6.42 0.0 0
M  V30 10 C 9.2338 -3.2395 0.0 0
M  V30 11 C 7.9466 -4.3985 0.0 0
M  V30 12 C 9.954 -6.6279 0.0 0
M  V30 13 C 8.5647 -2.4964 0.0 0
M  V30 14 C 7.2775 -3.6554 0.0 0
M  V30 15 C 7.5865 -2.7043 0.0 0
M  V30 16 C 6.9174 -1.9612 0.0 0
M  V30 17 N 5.9392 -2.1691 0.0 0
M  V30 18 C 5.1961 -1.4999 0.0 0
M  V30 19 C 5.5325 -3.0826 0.0 0
M  V30 20 C 4.3301 -1.9999 0.0 0
M  V30 21 C 5.1961 -0.4999 0.0 0
M  V30 22 C 4.538 -2.9781 0.0 0
M  V30 23 C 6.0325 -3.9487 0.0 0
M  V30 24 C 3.4641 -1.5 0.0 0
M  V30 25 C 4.3301 0.0 0.0 0
M  V30 26 C 3.8689 -3.7212 0.0 0
M  V30 27 C 3.4641 -0.5 0.0 0
M  V30 28 C 2.598 0.0 0.0 0
M  V30 29 O 2.598 1.0 0.0 0
M  V30 30 N 1.732 -0.5 0.0 0
M  V30 31 C 0.866 0.0 0.0 0 CFG=2
M  V30 32 C 0.866 1.0 0.0 0
M  V30 33 C 0.0 -0.5 0.0 0
M  V30 34 C 1.732 1.5 0.0 0
M  V30 35 C 0.0 1.4999 0.0 0
M  V30 36 C 1.732 2.5 0.0 0
M  V30 37 C 0.0 2.5 0.0 0
M  V30 38 C 0.866 2.9999 0.0 0
M  V30 39 C 2.598 3.0 0.0 0
M  V30 40 C 3.4641 2.5 0.0 0
M  V30 41 C 2.598 4.0 0.0 0
M  V30 END ATOM
M  V30 BEGIN BOND
M  V30 1 2 1 2
M  V30 2 1 2 3
M  V30 3 1 2 4
M  V30 4 2 4 5
M  V30 5 1 4 6
M  V30 6 1 5 7
M  V30 7 1 5 8
M  V30 8 2 6 9
M  V30 9 2 7 10
M  V30 10 1 7 11
M  V30 11 2 8 12
M  V30 12 1 10 13
M  V30 13 2 11 14
M  V30 14 2 13 15
M  V30 15 1 15 16
M  V30 16 1 16 17
M  V30 17 1 17 18
M  V30 18 1 17 19
M  V30 19 2 18 20
M  V30 20 1 18 21
M  V30 21 2 19 22
M  V30 22 1 19 23
M  V30 23 1 20 24
M  V30 24 2 21 25
M  V30 25 1 22 26
M  V30 26 2 24 27
M  V30 27 1 27 28
M  V30 28 2 28 29
M  V30 29 1 28 30
M  V30 30 1 30 31
M  V30 31 1 31 32
M  V30 32 1 31 33 CFG=1
M  V30 33 2 32 34
M  V30 34 1 32 35
M  V30 35 1 34 36
M  V30 36 2 35 37
M  V30 37 2 36 38
M  V30 38 1 36 39
M  V30 39 1 39 40
M  V30 40 1 39 41
M  V30 41 1 9 12
M  V30 42 1 14 15
M  V30 43 1 20 22
M  V30 44 1 25 27
M  V30 45 1 37 38
M  V30 END BOND
M  V30 BEGIN COLLECTION
M  V30 MDLV30/STEABS ATOMS=(1 31)
M  V30 END COLLECTION
M  V30 END CTAB
M  END
>  <Molecule ChEMBL ID>
CHEMBL3736229

>  <Smiles>
Cc1c(C)n(Cc2ccc(-c3ccccc3C(=O)O)cc2)c2ccc(C(=O)N[C@@H](C)c3cccc(C(C)C)c3)cc12

>  <IC50_nM>
30

>  <Assay Description>
Binding affinity to GST-tagged PPAR-gamma-LBD (unknown origin) after 2 hrs by Lantha screen assay using fluormone Pan-PPAR green probe

$$$$
CHEMBL2338475
Actelion Java MolfileCreator 2.0

  0  0  0  0  0  0              0 V3000
M  V30 BEGIN CTAB
M  V30 COUNTS 32 35 0 0 0
M  V30 BEGIN ATOM
M  V30 1 Cl 2.598 2.25 0.0 0
M  V30 2 C 3.8971 1.5 0.0 0
M  V30 3 C 3.8971 0.0 0.0 0
M  V30 4 C 5.1961 2.25 0.0 0
M  V30 5 S 2.598 -0.75 0.0 0
M  V30 6 C 5.1961 -0.75 0.0 0
M  V30 7 C 6.4951 1.5 0.0 0
M  V30 8 O 1.848 -2.049 0.0 0
M  V30 9 O 3.348 -2.049 0.0 0
M  V30 10 N 1.299 0.0 0.0 0
M  V30 11 C 6.4951 0.0 0.0 0
M  V30 12 Cl 7.7942 2.25 0.0 0
M  V30 13 C 0.0 -0.75 0.0 0
M  V30 14 C -1.299 0.0 0.0 0
M  V30 15 C 0.0 -2.25 0.0 0
M  V30 16 C -2.598 -0.75 0.0 0
M  V30 17 C -1.299 -3.0 0.0 0
M  V30 18 C -2.598 -2.25 0.0 0
M  V30 19 C -3.8971 0.0 0.0 0
M  V30 20 O -3.8971 -3.0 0.0 0
M  V30 21 O -3.8971 1.5 0.0 0
M  V30 22 C -5.1961 -0.75 0.0 0
M  V30 23 C -3.8971 -4.5 0.0 0
M  V30 24 C -5.1961 -5.25 0.0 0
M  V30 25 C -2.598 -5.25 0.0 0
M  V30 26 N -5.1961 -6.75 0.0 0
M  V30 27 C -2.598 -6.75 0.0 0
M  V30 28 C -3.8971 -7.5 0.0 0
M  V30 29 C -1.299 -7.5 0.0 0
M  V30 30 C -3.8971 -9.0 0.0 0
M  V30 31 C -1.299 -9.0 0.0 0
M  V30 32 C -2.598 -9.75 0.0 0
M  V30 END ATOM
M  V30 BEGIN BOND
M  V30 1 1 1 2
M  V30 2 2 2 3
M  V30 3 1 2 4
M  V30 4 1 3 5
M  V30 5 1 3 6
M  V30 6 2 4 7
M  V30 7 2 5 8
M  V30 8 2 5 9
M  V30 9 1 5 10
M  V30 10 2 6 11
M  V30 11 1 7 12
M  V30 12 1 10 13
M  V30 13 2 13 14
M  V30 14 1 13 15
M  V30 15 1 14 16
M  V30 16 2 15 17
M  V30 17 2 16 18
M  V30 18 1 16 19
M  V30 19 1 18 20
M  V30 20 2 19 21
M  V30 21 1 19 22
M  V30 22 1 20 23
M  V30 23 1 23 24
M  V30 24 2 23 25
M  V30 25 2 24 26
M  V30 26 1 25 27
M  V30 27 1 26 28
M  V30 28 2 27 29
M  V30 29 2 28 30
M  V30 30 1 29 31
M  V30 31 1 30 32
M  V30 32 1 7 11
M  V30 33 1 17 18
M  V30 34 1 27 28
M  V30 35 2 31 32
M  V30 END BOND
M  V30 END CTAB
M  END
>  <Molecule ChEMBL ID>
CHEMBL2338475

>  <Smiles>
CC(=O)c1cc(NS(=O)(=O)c2ccc(Cl)cc2Cl)ccc1Oc1cnc2ccccc2c1

>  <IC50_nM>
30

>  <Assay Description>
Displacement of [3H]-rosiglitazone from GST-tagged PPARgammaLBD (unknown origin) after 1 hr by scintillation proximity assay

$$$$
CHEMBL94397
Actelion Java MolfileCreator 2.0

  0  0  0  0  0  0              0 V3000
M  V30 BEGIN CTAB
M  V30 COUNTS 35 38 0 0 0
M  V30 BEGIN ATOM
M  V30 1 S 8.7077 -0.4067 0.0 0
M  V30 2 C 9.3769 0.3364 0.0 0
M  V30 3 C 7.7942 0.0 0.0 0 CFG=2
M  V30 4 O 10.3714 0.2318 0.0 0
M  V30 5 N 8.8769 1.2024 0.0 0
M  V30 6 C 6.9282 -0.5 0.0 0
M  V30 7 C 7.8987 0.9945 0.0 0
M  V30 8 C 6.0621 0.0 0.0 0
M  V30 9 C 6.9282 -1.5 0.0 0
M  V30 10 O 7.1556 1.6636 0.0 0
M  V30 11 C 5.1961 -0.5 0.0 0
M  V30 12 C 6.0621 -2.0 0.0 0
M  V30 13 O 4.3301 0.0 0.0 0
M  V30 14 C 5.1961 -1.5 0.0 0
M  V30 15 C 3.4641 -0.5 0.0 0
M  V30 16 C 2.598 0.0 0.0 0
M  V30 17 C 1.732 -0.5 0.0 0
M  V30 18 O 0.866 0.0 0.0 0
M  V30 19 C 0.0 -0.5 0.0 0
M  V30 20 C -0.866 0.0 0.0 0
M  V30 21 C 0.0 -1.4999 0.0 0
M  V30 22 C -1.732 -0.4999 0.0 0
M  V30 23 C -0.866 1.0 0.0 0
M  V30 24 C -0.866 -1.9999 0.0 0
M  V30 25 C -1.732 -1.4999 0.0 0
M  V30 26 C 0.0 1.5 0.0 0
M  V30 27 O -2.598 -1.9999 0.0 0
M  V30 28 C 0.0 2.5 0.0 0
M  V30 29 C -2.598 -2.9999 0.0 0
M  V30 30 C -3.4641 -3.4999 0.0 0
M  V30 31 C -1.732 -3.4999 0.0 0
M  V30 32 C -3.4641 -4.4999 0.0 0
M  V30 33 C -1.732 -4.4999 0.0 0
M  V30 34 C -2.598 -4.9999 0.0 0
M  V30 35 O -2.598 -5.9999 0.0 0
M  V30 END ATOM
M  V30 BEGIN BOND
M  V30 1 1 1 2
M  V30 2 1 1 3
M  V30 3 2 2 4
M  V30 4 1 2 5
M  V30 5 1 3 6 CFG=3
M  V30 6 1 3 7
M  V30 7 2 6 8
M  V30 8 1 6 9
M  V30 9 2 7 10
M  V30 10 1 8 11
M  V30 11 2 9 12
M  V30 12 1 11 13
M  V30 13 2 11 14
M  V30 14 1 13 15
M  V30 15 1 15 16
M  V30 16 1 16 17
M  V30 17 1 17 18
M  V30 18 1 18 19
M  V30 19 2 19 20
M  V30 20 1 19 21
M  V30 21 1 20 22
M  V30 22 1 20 23
M  V30 23 2 21 24
M  V30 24 2 22 25
M  V30 25 1 23 26
M  V30 26 1 25 27
M  V30 27 1 26 28
M  V30 28 1 27 29
M  V30 29 2 29 30
M  V30 30 1 29 31
M  V30 31 1 30 32
M  V30 32 2 31 33
M  V30 33 2 32 34
M  V30 34 1 34 35
M  V30 35 1 5 7
M  V30 36 1 12 14
M  V30 37 1 24 25
M  V30 38 1 33 34
M  V30 END BOND
M  V30 BEGIN COLLECTION
M  V30 MDLV30/STERAC1 ATOMS=(1 3)
M  V30 END COLLECTION
M  V30 END CTAB
M  END
>  <Molecule ChEMBL ID>
CHEMBL94397

>  <Smiles>
CCCc1cc(Oc2ccc(O)cc2)ccc1OCCCOc1cccc(C2SC(=O)NC2=O)c1

>  <IC50_nM>
30

>  <Assay Description>
In vitro binding affinity against human peroxisome proliferator activated receptor gamma

$$$$
CHEMBL3695864
Actelion Java MolfileCreator 2.0

  0  0  0  0  0  0              0 V3000
M  V30 BEGIN CTAB
M  V30 COUNTS 37 41 0 0 0
M  V30 BEGIN ATOM
M  V30 1 Cl 4.3301 0.9999 0.0 0
M  V30 2 C 4.3301 0.0 0.0 0
M  V30 3 C 3.4641 -0.5 0.0 0
M  V30 4 C 5.1961 -0.5 0.0 0
M  V30 5 C 3.4641 -1.5 0.0 0
M  V30 6 C 2.598 0.0 0.0 0 CFG=2
M  V30 7 C 5.1961 -1.5 0.0 0
M  V30 8 Cl 2.598 -1.9999 0.0 0
M  V30 9 C 4.3301 -2.0 0.0 0
M  V30 10 N 1.732 -0.5 0.0 0
M  V30 11 C 2.598 1.0 0.0 0
M  V30 12 C 0.866 0.0 0.0 0
M  V30 13 O 0.866 1.0 0.0 0
M  V30 14 C 0.0 -0.5 0.0 0
M  V30 15 C 0.0 -1.4999 0.0 0
M  V30 16 C -0.866 0.0 0.0 0
M  V30 17 C -0.866 -1.9999 0.0 0
M  V30 18 C -1.732 -0.4999 0.0 0
M  V30 19 C -1.732 -1.4999 0.0 0
M  V30 20 C -1.0739 -2.9781 0.0 0
M  V30 21 N -2.4751 -2.1691 0.0 0
M  V30 22 C -2.0684 -3.0826 0.0 0
M  V30 23 C -0.4048 -3.7212 0.0 0
M  V30 24 C -3.4533 -1.9612 0.0 0
M  V30 25 C -2.5684 -3.9487 0.0 0
M  V30 26 C -4.1224 -2.7043 0.0 0
M  V30 27 C -5.1006 -2.4964 0.0 0
M  V30 28 C -3.8134 -3.6554 0.0 0
M  V30 29 C -5.7697 -3.2395 0.0 0
M  V30 30 C -4.4825 -4.3985 0.0 0
M  V30 31 C -5.4607 -4.1906 0.0 0
M  V30 32 C -6.1298 -4.9337 0.0 0
M  V30 33 C -7.108 -4.7258 0.0 0
M  V30 34 C -5.8208 -5.8848 0.0 0
M  V30 35 C -7.7771 -5.469 0.0 0
M  V30 36 C -6.4899 -6.6279 0.0 0
M  V30 37 C -7.4681 -6.42 0.0 0
M  V30 END ATOM
M  V30 BEGIN BOND
M  V30 1 1 1 2
M  V30 2 2 2 3
M  V30 3 1 2 4
M  V30 4 1 3 5
M  V30 5 1 3 6
M  V30 6 2 4 7
M  V30 7 1 5 8
M  V30 8 2 5 9
M  V30 9 1 6 10
M  V30 10 1 6 11 CFG=3
M  V30 11 1 10 12
M  V30 12 2 12 13
M  V30 13 1 12 14
M  V30 14 2 14 15
M  V30 15 1 14 16
M  V30 16 1 15 17
M  V30 17 2 16 18
M  V30 18 2 17 19
M  V30 19 1 17 20
M  V30 20 1 19 21
M  V30 21 2 20 22
M  V30 22 1 20 23
M  V30 23 1 21 24
M  V30 24 1 22 25
M  V30 25 1 24 26
M  V30 26 2 26 27
M  V30 27 1 26 28
M  V30 28 1 27 29
M  V30 29 2 28 30
M  V30 30 2 29 31
M  V30 31 1 31 32
M  V30 32 2 32 33
M  V30 33 1 32 34
M  V30 34 1 33 35
M  V30 35 2 34 36
M  V30 36 2 35 37
M  V30 37 1 7 9
M  V30 38 1 18 19
M  V30 39 1 21 22
M  V30 40 1 30 31
M  V30 41 1 36 37
M  V30 END BOND
M  V30 BEGIN COLLECTION
M  V30 MDLV30/STEABS ATOMS=(1 6)
M  V30 END COLLECTION
M  V30 END CTAB
M  END
>  <Molecule ChEMBL ID>
CHEMBL3695864

>  <Smiles>
Cc1c(C)n(Cc2ccc(-c3ccccc3)cc2)c2ccc(C(=O)N[C@H](C)c3c(Cl)cccc3Cl)cc12

>  <IC50_nM>
30

>  <Assay Description>
Lanthascreen Competitive Binding Assay: The assay was performed according to manufacturer protocol. A mixture of nM GST-PPARG-LBD, 5 nM Tb-GST-antibody, 5 nM Fluormone Pan-PPAR Green, and serial dilutions of the experimental compound, beginning at 10 ׬M downwards, was added to wells of black 384-well low-volume plates (Greiner) to a total volume of 18 ׬L. All dilutions were made in TR-FRET assay buffer C. DMSO at 2% final concentration was used as a no-ligand control. Experiment was performed in triplicate, and incubated for 2 hours in the dark prior to assay read in Perkin Elmer ViewLux ultra HTS microplate reader. FRET signal was measured by excitation at 340 nm and emission at 520 nm for fluorescein and 490 nm for terbium. Fold change over DMSO was calculated using GraphPad Prism Software (La Jolla, Calif.) by calculating 520 nm/490 nm ratio. Graphs were plotted as fold change of FRET signal for compound treatment over DMSO-only control.

$$$$
CHEMBL1783053
Actelion Java MolfileCreator 2.0

  0  0  0  0  0  0              0 V3000
M  V30 BEGIN CTAB
M  V30 COUNTS 35 38 0 0 0
M  V30 BEGIN ATOM
M  V30 1 S 8.7077 -0.4067 0.0 0
M  V30 2 C 9.3769 0.3364 0.0 0
M  V30 3 C 7.7942 0.0 0.0 0 CFG=2
M  V30 4 O 10.3714 0.2318 0.0 0
M  V30 5 N 8.8769 1.2024 0.0 0
M  V30 6 C 6.9282 -0.5 0.0 0
M  V30 7 C 7.8987 0.9945 0.0 0
M  V30 8 C 6.0621 0.0 0.0 0
M  V30 9 C 6.9282 -1.5 0.0 0
M  V30 10 O 7.1556 1.6636 0.0 0
M  V30 11 C 5.1961 -0.5 0.0 0
M  V30 12 C 6.0621 -2.0 0.0 0
M  V30 13 O 4.3301 0.0 0.0 0
M  V30 14 C 5.1961 -1.5 0.0 0
M  V30 15 C 3.4641 -0.5 0.0 0
M  V30 16 C 2.598 0.0 0.0 0
M  V30 17 C 1.732 -0.5 0.0 0
M  V30 18 O 0.866 0.0 0.0 0
M  V30 19 C 0.0 -0.5 0.0 0
M  V30 20 C -0.866 0.0 0.0 0
M  V30 21 C 0.0 -1.4999 0.0 0
M  V30 22 C -1.732 -0.4999 0.0 0
M  V30 23 C -0.866 1.0 0.0 0
M  V30 24 C -0.866 -1.9999 0.0 0
M  V30 25 C -1.732 -1.4999 0.0 0
M  V30 26 C 0.0 1.5 0.0 0
M  V30 27 O -2.598 -1.9999 0.0 0
M  V30 28 C 0.0 2.5 0.0 0
M  V30 29 C -2.598 -2.9999 0.0 0
M  V30 30 C -3.4641 -3.4999 0.0 0
M  V30 31 C -1.732 -3.4999 0.0 0
M  V30 32 C -3.4641 -4.4999 0.0 0
M  V30 33 C -1.732 -4.4999 0.0 0
M  V30 34 C -2.598 -4.9999 0.0 0
M  V30 35 O -2.598 -5.9999 0.0 0
M  V30 END ATOM
M  V30 BEGIN BOND
M  V30 1 1 1 2
M  V30 2 1 1 3
M  V30 3 2 2 4
M  V30 4 1 2 5
M  V30 5 1 3 6 CFG=3
M  V30 6 1 3 7
M  V30 7 2 6 8
M  V30 8 1 6 9
M  V30 9 2 7 10
M  V30 10 1 8 11
M  V30 11 2 9 12
M  V30 12 1 11 13
M  V30 13 2 11 14
M  V30 14 1 13 15
M  V30 15 1 15 16
M  V30 16 1 16 17
M  V30 17 1 17 18
M  V30 18 1 18 19
M  V30 19 2 19 20
M  V30 20 1 19 21
M  V30 21 1 20 22
M  V30 22 1 20 23
M  V30 23 2 21 24
M  V30 24 2 22 25
M  V30 25 1 23 26
M  V30 26 1 25 27
M  V30 27 1 26 28
M  V30 28 1 27 29
M  V30 29 2 29 30
M  V30 30 1 29 31
M  V30 31 1 30 32
M  V30 32 2 31 33
M  V30 33 2 32 34
M  V30 34 1 34 35
M  V30 35 1 5 7
M  V30 36 1 12 14
M  V30 37 1 24 25
M  V30 38 1 33 34
M  V30 END BOND
M  V30 BEGIN COLLECTION
M  V30 MDLV30/STEABS ATOMS=(1 3)
M  V30 END COLLECTION
M  V30 END CTAB
M  END
>  <Molecule ChEMBL ID>
CHEMBL1783053

>  <Smiles>
CCCc1cc(Oc2ccc(O)cc2)ccc1OCCCOc1cccc([C@H]2SC(=O)NC2=O)c1

>  <IC50_nM>
30

>  <Assay Description>
Displacement of radio-labeled full agonist from PPARgamma receptor

$$$$
CHEMBL1783039
Actelion Java MolfileCreator 2.0

  0  0  0  0  0  0              0 V3000
M  V30 BEGIN CTAB
M  V30 COUNTS 36 40 0 0 0
M  V30 BEGIN ATOM
M  V30 1 S 8.7077 -0.4067 0.0 0
M  V30 2 C 9.3769 0.3364 0.0 0
M  V30 3 C 7.7942 0.0 0.0 0 CFG=2
M  V30 4 O 10.3714 0.2318 0.0 0
M  V30 5 N 8.8769 1.2024 0.0 0
M  V30 6 C 6.9282 -0.5 0.0 0
M  V30 7 C 7.8987 0.9945 0.0 0
M  V30 8 C 6.0621 0.0 0.0 0
M  V30 9 C 6.9282 -1.5 0.0 0
M  V30 10 O 7.1556 1.6636 0.0 0
M  V30 11 C 5.1961 -0.5 0.0 0
M  V30 12 C 6.0621 -2.0 0.0 0
M  V30 13 O 4.3301 0.0 0.0 0
M  V30 14 C 5.1961 -1.5 0.0 0
M  V30 15 C 3.4641 -0.5 0.0 0
M  V30 16 C 2.598 0.0 0.0 0
M  V30 17 C 1.732 -0.5 0.0 0
M  V30 18 O 0.866 0.0 0.0 0
M  V30 19 C 0.0 -0.5 0.0 0
M  V30 20 C -0.866 0.0 0.0 0
M  V30 21 C 0.0 -1.4999 0.0 0
M  V30 22 C -1.732 -0.4999 0.0 0
M  V30 23 C -0.866 1.0 0.0 0
M  V30 24 C -0.866 -1.9999 0.0 0
M  V30 25 C -1.732 -1.4999 0.0 0
M  V30 26 C 0.0 1.5 0.0 0
M  V30 27 C -2.598 -1.9999 0.0 0
M  V30 28 C 0.0 2.5 0.0 0
M  V30 29 N -3.5116 -1.5932 0.0 0
M  V30 30 C -2.7026 -2.9945 0.0 0
M  V30 31 O -4.1807 -2.3364 0.0 0
M  V30 32 C -3.6807 -3.2024 0.0 0
M  V30 33 C -2.0334 -3.7376 0.0 0
M  V30 34 C -3.9897 -4.1534 0.0 0
M  V30 35 C -2.3424 -4.6887 0.0 0
M  V30 36 C -3.3206 -4.8966 0.0 0
M  V30 END ATOM
M  V30 BEGIN BOND
M  V30 1 1 1 2
M  V30 2 1 1 3
M  V30 3 2 2 4
M  V30 4 1 2 5
M  V30 5 1 3 6 CFG=3
M  V30 6 1 3 7
M  V30 7 2 6 8
M  V30 8 1 6 9
M  V30 9 2 7 10
M  V30 10 1 8 11
M  V30 11 2 9 12
M  V30 12 1 11 13
M  V30 13 2 11 14
M  V30 14 1 13 15
M  V30 15 1 15 16
M  V30 16 1 16 17
M  V30 17 1 17 18
M  V30 18 1 18 19
M  V30 19 2 19 20
M  V30 20 1 19 21
M  V30 21 1 20 22
M  V30 22 1 20 23
M  V30 23 2 21 24
M  V30 24 2 22 25
M  V30 25 1 23 26
M  V30 26 1 25 27
M  V30 27 1 26 28
M  V30 28 2 27 29
M  V30 29 1 27 30
M  V30 30 1 29 31
M  V30 31 2 30 32
M  V30 32 1 30 33
M  V30 33 1 32 34
M  V30 34 2 33 35
M  V30 35 2 34 36
M  V30 36 1 5 7
M  V30 37 1 12 14
M  V30 38 1 24 25
M  V30 39 1 31 32
M  V30 40 1 35 36
M  V30 END BOND
M  V30 BEGIN COLLECTION
M  V30 MDLV30/STEABS ATOMS=(1 3)
M  V30 END COLLECTION
M  V30 END CTAB
M  END
>  <Molecule ChEMBL ID>
CHEMBL1783039

>  <Smiles>
CCCc1cc(-c2noc3ccccc23)ccc1OCCCOc1cccc([C@H]2SC(=O)NC2=O)c1

>  <IC50_nM>
30

>  <Assay Description>
Displacement of radio-labeled full agonist from PPARgamma receptor

$$$$
CHEMBL255930
Actelion Java MolfileCreator 2.0

  0  0  0  0  0  0              0 V3000
M  V30 BEGIN CTAB
M  V30 COUNTS 40 44 0 0 0
M  V30 BEGIN ATOM
M  V30 1 F 6.1136 -7.5772 0.0 0
M  V30 2 C 5.2 -7.9839 0.0 0
M  V30 3 F 5.6068 -8.8975 0.0 0
M  V30 4 F 4.2865 -8.3907 0.0 0
M  V30 5 C 4.7933 -7.0704 0.0 0
M  V30 6 N 5.3811 -6.2614 0.0 0
M  V30 7 C 3.7988 -6.9658 0.0 0
M  V30 8 C 4.9743 -5.3478 0.0 0
M  V30 9 C 3.392 -6.0523 0.0 0
M  V30 10 N 3.9798 -5.2433 0.0 0
M  V30 11 N 5.5621 -4.5388 0.0 0
M  V30 12 C 6.5621 -4.5388 0.0 0
M  V30 13 C 5.2531 -3.5877 0.0 0
M  V30 14 C 6.8711 -3.5877 0.0 0 CFG=1
M  V30 15 C 6.0621 -3.0 0.0 0 CFG=2
M  V30 16 C 7.8222 -3.2787 0.0 0
M  V30 17 C 6.0621 -2.0 0.0 0
M  V30 18 O 8.5653 -3.9478 0.0 0
M  V30 19 O 8.0301 -2.3006 0.0 0
M  V30 20 C 5.1961 -1.4999 0.0 0
M  V30 21 C 5.1961 -0.5 0.0 0
M  V30 22 C 4.3301 -1.9999 0.0 0
M  V30 23 C 4.3301 0.0 0.0 0
M  V30 24 C 3.4641 -1.5 0.0 0
M  V30 25 C 3.4641 -0.5 0.0 0
M  V30 26 O 2.598 0.0 0.0 0
M  V30 27 C 1.732 -0.5 0.0 0
M  V30 28 C 0.866 0.0 0.0 0
M  V30 29 C 0.0 -0.5 0.0 0
M  V30 30 N -0.9135 -0.0932 0.0 0
M  V30 31 C -0.1045 -1.4945 0.0 0
M  V30 32 C -1.5826 -0.8364 0.0 0
M  V30 33 O -1.0826 -1.7024 0.0 0
M  V30 34 C 0.6386 -2.1636 0.0 0
M  V30 35 C -2.5771 -0.7318 0.0 0
M  V30 36 C -2.9839 0.1816 0.0 0
M  V30 37 C -3.1649 -1.5408 0.0 0
M  V30 38 C -3.9784 0.2861 0.0 0
M  V30 39 C -4.1595 -1.4363 0.0 0
M  V30 40 C -4.5662 -0.5228 0.0 0
M  V30 END ATOM
M  V30 BEGIN BOND
M  V30 1 1 1 2
M  V30 2 1 2 3
M  V30 3 1 2 4
M  V30 4 1 2 5
M  V30 5 2 5 6
M  V30 6 1 5 7
M  V30 7 1 6 8
M  V30 8 2 7 9
M  V30 9 2 8 10
M  V30 10 1 8 11
M  V30 11 1 11 12
M  V30 12 1 11 13
M  V30 13 1 12 14
M  V30 14 1 13 15
M  V30 15 1 14 16 CFG=1
M  V30 16 1 15 17 CFG=1
M  V30 17 2 16 18
M  V30 18 1 16 19
M  V30 19 1 17 20
M  V30 20 2 20 21
M  V30 21 1 20 22
M  V30 22 1 21 23
M  V30 23 2 22 24
M  V30 24 2 23 25
M  V30 25 1 25 26
M  V30 26 1 26 27
M  V30 27 1 27 28
M  V30 28 1 28 29
M  V30 29 1 29 30
M  V30 30 2 29 31
M  V30 31 2 30 32
M  V30 32 1 31 33
M  V30 33 1 31 34
M  V30 34 1 32 35
M  V30 35 2 35 36
M  V30 36 1 35 37
M  V30 37 1 36 38
M  V30 38 2 37 39
M  V30 39 2 38 40
M  V30 40 1 9 10
M  V30 41 1 14 15
M  V30 42 1 24 25
M  V30 43 1 32 33
M  V30 44 1 39 40
M  V30 END BOND
M  V30 BEGIN COLLECTION
M  V30 MDLV30/STEABS ATOMS=(2 14 15)
M  V30 END COLLECTION
M  V30 END CTAB
M  END
>  <Molecule ChEMBL ID>
CHEMBL255930

>  <Smiles>
Cc1oc(-c2ccccc2)nc1CCOc1ccc(C[C@@H]2CN(c3nccc(C(F)(F)F)n3)C[C@@H]2C(=O)O)cc1

>  <IC50_nM>
30

>  <Assay Description>
Binding affinity to PPARgamma (unknown origin) using fluorescein-tagged dual PPARalpha/gamma activator by homogeneous fluorescence polarization binding assay

$$$$
CHEMBL3695815
Actelion Java MolfileCreator 2.0

  0  0  0  0  0  0              0 V3000
M  V30 BEGIN CTAB
M  V30 COUNTS 39 43 0 0 0
M  V30 BEGIN ATOM
M  V30 1 F 4.3301 -2.9999 0.0 0
M  V30 2 C 4.3301 -1.9999 0.0 0
M  V30 3 C 5.1961 -1.5 0.0 0
M  V30 4 C 3.4641 -1.5 0.0 0
M  V30 5 F 6.0621 -2.0 0.0 0
M  V30 6 C 5.1961 -0.5 0.0 0
M  V30 7 C 3.4641 -0.5 0.0 0
M  V30 8 C 4.3301 0.0 0.0 0
M  V30 9 C 2.598 0.0 0.0 0
M  V30 10 N 1.732 -0.5 0.0 0
M  V30 11 C 0.866 0.0 0.0 0
M  V30 12 O 0.866 1.0 0.0 0
M  V30 13 C 0.0 -0.5 0.0 0
M  V30 14 C 0.0 -1.4999 0.0 0
M  V30 15 C -0.866 0.0 0.0 0
M  V30 16 C -0.866 -1.9999 0.0 0
M  V30 17 C -1.732 -0.4999 0.0 0
M  V30 18 C -1.732 -1.4999 0.0 0
M  V30 19 C -1.0739 -2.9781 0.0 0
M  V30 20 N -2.4751 -2.1691 0.0 0
M  V30 21 C -2.0684 -3.0826 0.0 0
M  V30 22 C -0.4048 -3.7212 0.0 0
M  V30 23 C -3.4533 -1.9612 0.0 0
M  V30 24 C -2.5684 -3.9487 0.0 0
M  V30 25 C -4.1224 -2.7043 0.0 0
M  V30 26 C -5.1006 -2.4964 0.0 0
M  V30 27 C -3.8134 -3.6554 0.0 0
M  V30 28 C -5.7697 -3.2395 0.0 0
M  V30 29 C -4.4825 -4.3985 0.0 0
M  V30 30 C -5.4607 -4.1906 0.0 0
M  V30 31 C -6.1298 -4.9337 0.0 0
M  V30 32 C -7.108 -4.7258 0.0 0
M  V30 33 C -5.8208 -5.8848 0.0 0
M  V30 34 C -7.417 -3.7748 0.0 0
M  V30 35 C -7.7771 -5.469 0.0 0
M  V30 36 C -6.4899 -6.6279 0.0 0
M  V30 37 O -6.7478 -3.0316 0.0 0
M  V30 38 O -8.3951 -3.5669 0.0 0
M  V30 39 C -7.4681 -6.42 0.0 0
M  V30 END ATOM
M  V30 BEGIN BOND
M  V30 1 1 1 2
M  V30 2 2 2 3
M  V30 3 1 2 4
M  V30 4 1 3 5
M  V30 5 1 3 6
M  V30 6 2 4 7
M  V30 7 2 6 8
M  V30 8 1 7 9
M  V30 9 1 9 10
M  V30 10 1 10 11
M  V30 11 2 11 12
M  V30 12 1 11 13
M  V30 13 2 13 14
M  V30 14 1 13 15
M  V30 15 1 14 16
M  V30 16 2 15 17
M  V30 17 2 16 18
M  V30 18 1 16 19
M  V30 19 1 18 20
M  V30 20 2 19 21
M  V30 21 1 19 22
M  V30 22 1 20 23
M  V30 23 1 21 24
M  V30 24 1 23 25
M  V30 25 2 25 26
M  V30 26 1 25 27
M  V30 27 1 26 28
M  V30 28 2 27 29
M  V30 29 2 28 30
M  V30 30 1 30 31
M  V30 31 2 31 32
M  V30 32 1 31 33
M  V30 33 1 32 34
M  V30 34 1 32 35
M  V30 35 2 33 36
M  V30 36 2 34 37
M  V30 37 1 34 38
M  V30 38 2 35 39
M  V30 39 1 7 8
M  V30 40 1 17 18
M  V30 41 1 20 21
M  V30 42 1 29 30
M  V30 43 1 36 39
M  V30 END BOND
M  V30 END CTAB
M  END
>  <Molecule ChEMBL ID>
CHEMBL3695815

>  <Smiles>
Cc1c(C)n(Cc2ccc(-c3ccccc3C(=O)O)cc2)c2ccc(C(=O)NCc3ccc(F)c(F)c3)cc12

>  <IC50_nM>
31

>  <Assay Description>
Lanthascreen Competitive Binding Assay: The assay was performed according to manufacturer protocol. A mixture of nM GST-PPARG-LBD, 5 nM Tb-GST-antibody, 5 nM Fluormone Pan-PPAR Green, and serial dilutions of the experimental compound, beginning at 10 ׬M downwards, was added to wells of black 384-well low-volume plates (Greiner) to a total volume of 18 ׬L. All dilutions were made in TR-FRET assay buffer C. DMSO at 2% final concentration was used as a no-ligand control. Experiment was performed in triplicate, and incubated for 2 hours in the dark prior to assay read in Perkin Elmer ViewLux ultra HTS microplate reader. FRET signal was measured by excitation at 340 nm and emission at 520 nm for fluorescein and 490 nm for terbium. Fold change over DMSO was calculated using GraphPad Prism Software (La Jolla, Calif.) by calculating 520 nm/490 nm ratio. Graphs were plotted as fold change of FRET signal for compound treatment over DMSO-only control.

$$$$
CHEMBL3678088
Actelion Java MolfileCreator 2.0

  0  0  0  0  0  0              0 V3000
M  V30 BEGIN CTAB
M  V30 COUNTS 32 35 0 0 0
M  V30 BEGIN ATOM
M  V30 1 F 8.8737 -1.5453 0.0 0
M  V30 2 C 8.5647 -2.4964 0.0 0
M  V30 3 C 7.5865 -2.7043 0.0 0
M  V30 4 C 9.2338 -3.2395 0.0 0
M  V30 5 C 7.2775 -3.6554 0.0 0
M  V30 6 C 6.9174 -1.9612 0.0 0
M  V30 7 C 8.9248 -4.1906 0.0 0
M  V30 8 C 7.9466 -4.3985 0.0 0
M  V30 9 N 5.9392 -2.1691 0.0 0
M  V30 10 F 9.5939 -4.9337 0.0 0
M  V30 11 C 5.1961 -1.4999 0.0 0
M  V30 12 C 5.5325 -3.0826 0.0 0
M  V30 13 C 4.3301 -1.9999 0.0 0
M  V30 14 C 5.1961 -0.4999 0.0 0
M  V30 15 C 4.538 -2.9781 0.0 0
M  V30 16 C 3.4641 -1.5 0.0 0
M  V30 17 C 4.3301 0.0 0.0 0
M  V30 18 C 3.4641 -0.5 0.0 0
M  V30 19 C 2.598 0.0 0.0 0
M  V30 20 O 2.598 1.0 0.0 0
M  V30 21 N 1.732 -0.5 0.0 0
M  V30 22 C 0.866 0.0 0.0 0 CFG=1
M  V30 23 C 0.866 1.0 0.0 0
M  V30 24 C 0.0 -0.5 0.0 0
M  V30 25 C 1.732 1.5 0.0 0
M  V30 26 C 0.0 1.4999 0.0 0
M  V30 27 C 1.732 2.4999 0.0 0
M  V30 28 C 0.0 2.4999 0.0 0
M  V30 29 C 0.866 2.9999 0.0 0
M  V30 30 N 0.866 3.9999 0.0 0 CHG=1
M  V30 31 O 1.732 4.5 0.0 0
M  V30 32 O 0.0 4.5 0.0 0 CHG=-1
M  V30 END ATOM
M  V30 BEGIN BOND
M  V30 1 1 1 2
M  V30 2 2 2 3
M  V30 3 1 2 4
M  V30 4 1 3 5
M  V30 5 1 3 6
M  V30 6 2 4 7
M  V30 7 2 5 8
M  V30 8 1 6 9
M  V30 9 1 7 10
M  V30 10 1 9 11
M  V30 11 1 9 12
M  V30 12 2 11 13
M  V30 13 1 11 14
M  V30 14 2 12 15
M  V30 15 1 13 16
M  V30 16 2 14 17
M  V30 17 2 16 18
M  V30 18 1 18 19
M  V30 19 2 19 20
M  V30 20 1 19 21
M  V30 21 1 21 22
M  V30 22 1 22 23
M  V30 23 1 22 24 CFG=3
M  V30 24 2 23 25
M  V30 25 1 23 26
M  V30 26 1 25 27
M  V30 27 2 26 28
M  V30 28 2 27 29
M  V30 29 1 29 30
M  V30 30 2 30 31
M  V30 31 1 30 32
M  V30 32 1 7 8
M  V30 33 1 13 15
M  V30 34 1 17 18
M  V30 35 1 28 29
M  V30 END BOND
M  V30 BEGIN COLLECTION
M  V30 MDLV30/STEABS ATOMS=(1 22)
M  V30 END COLLECTION
M  V30 END CTAB
M  END
>  <Molecule ChEMBL ID>
CHEMBL3678088

>  <Smiles>
C[C@@H](NC(=O)c1ccc2c(ccn2Cc2ccc(F)cc2F)c1)c1ccc([N+](=O)[O-])cc1

>  <IC50_nM>
31

>  <Assay Description>
Lanthascreen Competitive Binding Assay: The assay was performed according to manufacturer protocol. A mixture of 5 nM GST-PPARG-LBD, 5 nM Tb-GST-antibody, 5 nM Fluormone Pan- PPAR Green, and serial dilutions of the experimental compound, beginning at 10 ׬� downwards, was added to wells of black 384-well low- volume plates (Greiner) to a total volume of 18 xL. All dilutions were made in TR-FRET assay buffer C. DMSO at 2% final concentration was used as a no-ligand control. Experiment was performed in triplicate, and incubated for 2 hours in the dark prior to assay read in Perkin Elmer ViewLux ultra HTS microplate reader. FRET signal was measured by excitation at 340 nm and emission at 520 nm for fluorescein and 490 nm for terbium.

$$$$
CHEMBL2338478
Actelion Java MolfileCreator 2.0

  0  0  0  0  0  0              0 V3000
M  V30 BEGIN CTAB
M  V30 COUNTS 34 36 0 0 0
M  V30 BEGIN ATOM
M  V30 1 Cl 2.6003 2.2519 0.0 0
M  V30 2 C 3.9005 1.5013 0.0 0
M  V30 3 C 3.9005 0.0 0.0 0
M  V30 4 C 5.2007 2.2519 0.0 0
M  V30 5 S 2.6003 -0.7506 0.0 0
M  V30 6 C 5.2007 -0.7506 0.0 0
M  V30 7 C 6.5009 1.5013 0.0 0
M  V30 8 O 1.8497 -2.0508 0.0 0
M  V30 9 O 3.351 -2.0508 0.0 0
M  V30 10 N 1.3001 0.0 0.0 0
M  V30 11 C 6.5009 0.0 0.0 0
M  V30 12 Cl 7.8011 2.2519 0.0 0
M  V30 13 C 0.0 -0.7506 0.0 0
M  V30 14 C -1.3001 0.0 0.0 0
M  V30 15 C 0.0 -2.2519 0.0 0
M  V30 16 C -2.6003 -0.7506 0.0 0
M  V30 17 C -1.3001 -3.0026 0.0 0
M  V30 18 C -2.6003 -2.2519 0.0 0
M  V30 19 C -3.9005 0.0 0.0 0
M  V30 20 C -1.3001 -4.5039 0.0 0
M  V30 21 O -3.9005 -3.0026 0.0 0
M  V30 22 F -4.6512 -1.3001 0.0 0
M  V30 23 F -5.2007 0.7506 0.0 0
M  V30 24 F -3.1498 1.3001 0.0 0
M  V30 25 F 0.2011 -4.5039 0.0 0
M  V30 26 F -1.3001 -6.0053 0.0 0
M  V30 27 F -2.7512 -4.4168 0.0 0
M  V30 28 C -3.9005 -4.5039 0.0 0
M  V30 29 C -5.2007 -5.2546 0.0 0
M  V30 30 C -2.6003 -5.2546 0.0 0
M  V30 31 N -5.2007 -6.7559 0.0 0
M  V30 32 C -2.6003 -6.7559 0.0 0
M  V30 33 C -3.9005 -7.5066 0.0 0
M  V30 34 Cl -1.3001 -7.5066 0.0 0
M  V30 END ATOM
M  V30 BEGIN BOND
M  V30 1 1 1 2
M  V30 2 2 2 3
M  V30 3 1 2 4
M  V30 4 1 3 5
M  V30 5 1 3 6
M  V30 6 2 4 7
M  V30 7 2 5 8
M  V30 8 2 5 9
M  V30 9 1 5 10
M  V30 10 2 6 11
M  V30 11 1 7 12
M  V30 12 1 10 13
M  V30 13 2 13 14
M  V30 14 1 13 15
M  V30 15 1 14 16
M  V30 16 2 15 17
M  V30 17 2 16 18
M  V30 18 1 16 19
M  V30 19 1 17 20
M  V30 20 1 18 21
M  V30 21 1 19 22
M  V30 22 1 19 23
M  V30 23 1 19 24
M  V30 24 1 20 25
M  V30 25 1 20 26
M  V30 26 1 20 27
M  V30 27 1 21 28
M  V30 28 2 28 29
M  V30 29 1 28 30
M  V30 30 1 29 31
M  V30 31 2 30 32
M  V30 32 2 31 33
M  V30 33 1 32 34
M  V30 34 1 7 11
M  V30 35 1 17 18
M  V30 36 1 32 33
M  V30 END BOND
M  V30 END CTAB
M  END
>  <Molecule ChEMBL ID>
CHEMBL2338478

>  <Smiles>
O=S(=O)(Nc1cc(C(F)(F)F)c(Oc2cncc(Cl)c2)c(C(F)(F)F)c1)c1ccc(Cl)cc1Cl

>  <IC50_nM>
31

>  <Assay Description>
Displacement of [3H]-rosiglitazone from GST-tagged PPARgammaLBD (unknown origin) after 1 hr by scintillation proximity assay

$$$$
CHEMBL3678137
Actelion Java MolfileCreator 2.0

  0  0  0  0  0  0              0 V3000
M  V30 BEGIN CTAB
M  V30 COUNTS 36 40 0 0 0
M  V30 BEGIN ATOM
M  V30 1 Br 9.0979 -3.0015 0.0 0
M  V30 2 C 7.7982 -2.2511 0.0 0
M  V30 3 C 7.7982 -0.7503 0.0 0
M  V30 4 C 6.4985 -3.0015 0.0 0
M  V30 5 C 6.4985 0.0 0.0 0
M  V30 6 C 5.1988 -2.2511 0.0 0
M  V30 7 C 5.1988 -0.7503 0.0 0
M  V30 8 C 3.8991 0.0 0.0 0 CFG=1
M  V30 9 N 2.5994 -0.7503 0.0 0
M  V30 10 C 3.8991 1.5007 0.0 0
M  V30 11 C 1.2997 0.0 0.0 0
M  V30 12 O 1.2997 1.5007 0.0 0
M  V30 13 C 0.0 -0.7503 0.0 0
M  V30 14 C 0.0 -2.2511 0.0 0
M  V30 15 C -1.2997 0.0 0.0 0
M  V30 16 C -1.2997 -3.0015 0.0 0
M  V30 17 C -2.5994 -0.7503 0.0 0
M  V30 18 C -2.5994 -2.2511 0.0 0
M  V30 19 C -1.6117 -4.4695 0.0 0
M  V30 20 N -3.7147 -3.2553 0.0 0
M  V30 21 C -3.1042 -4.6264 0.0 0
M  V30 22 C -0.6075 -5.5848 0.0 0
M  V30 23 C -5.1826 -2.9433 0.0 0
M  V30 24 C -3.8546 -5.9261 0.0 0
M  V30 25 C -6.1869 -4.0586 0.0 0
M  V30 26 C -7.6548 -3.7466 0.0 0
M  V30 27 C -5.7231 -5.4859 0.0 0
M  V30 28 C -8.6412 -4.8633 0.0 0
M  V30 29 C -6.7273 -6.6012 0.0 0
M  V30 30 C -8.1953 -6.2892 0.0 0
M  V30 31 C -9.1995 -7.4045 0.0 0
M  V30 32 C -10.0169 -6.1458 0.0 0
M  V30 33 C -9.121 -8.9032 0.0 0
M  V30 34 C -7.8623 -8.0858 0.0 0
M  V30 35 O -11.5156 -6.2244 0.0 0
M  V30 36 O -9.3713 -4.8058 0.0 0
M  V30 END ATOM
M  V30 BEGIN BOND
M  V30 1 1 1 2
M  V30 2 2 2 3
M  V30 3 1 2 4
M  V30 4 1 3 5
M  V30 5 2 4 6
M  V30 6 2 5 7
M  V30 7 1 7 8
M  V30 8 1 8 9
M  V30 9 1 8 10 CFG=1
M  V30 10 1 9 11
M  V30 11 2 11 12
M  V30 12 1 11 13
M  V30 13 2 13 14
M  V30 14 1 13 15
M  V30 15 1 14 16
M  V30 16 2 15 17
M  V30 17 2 16 18
M  V30 18 1 16 19
M  V30 19 1 18 20
M  V30 20 2 19 21
M  V30 21 1 19 22
M  V30 22 1 20 23
M  V30 23 1 21 24
M  V30 24 1 23 25
M  V30 25 2 25 26
M  V30 26 1 25 27
M  V30 27 1 26 28
M  V30 28 2 27 29
M  V30 29 2 28 30
M  V30 30 1 30 31
M  V30 31 1 31 32
M  V30 32 1 31 33
M  V30 33 1 31 34
M  V30 34 2 32 35
M  V30 35 1 32 36
M  V30 36 1 6 7
M  V30 37 1 17 18
M  V30 38 1 20 21
M  V30 39 1 29 30
M  V30 40 1 33 34
M  V30 END BOND
M  V30 BEGIN COLLECTION
M  V30 MDLV30/STEABS ATOMS=(1 8)
M  V30 END COLLECTION
M  V30 END CTAB
M  END
>  <Molecule ChEMBL ID>
CHEMBL3678137

>  <Smiles>
Cc1c(C)n(Cc2ccc(C3(C(=O)O)CC3)cc2)c2ccc(C(=O)N[C@@H](C)c3ccc(Br)cc3)cc12

>  <IC50_nM>
31

>  <Assay Description>
Lanthascreen Competitive Binding Assay: The assay was performed according to manufacturer protocol. A mixture of 5 nM GST-PPARG-LBD, 5 nM Tb-GST-antibody, 5 nM Fluormone Pan- PPAR Green, and serial dilutions of the experimental compound, beginning at 10 ׬� downwards, was added to wells of black 384-well low- volume plates (Greiner) to a total volume of 18 xL. All dilutions were made in TR-FRET assay buffer C. DMSO at 2% final concentration was used as a no-ligand control. Experiment was performed in triplicate, and incubated for 2 hours in the dark prior to assay read in Perkin Elmer ViewLux ultra HTS microplate reader. FRET signal was measured by excitation at 340 nm and emission at 520 nm for fluorescein and 490 nm for terbium.

$$$$
CHEMBL3695826
Actelion Java MolfileCreator 2.0

  0  0  0  0  0  0              0 V3000
M  V30 BEGIN CTAB
M  V30 COUNTS 34 38 0 0 0
M  V30 BEGIN ATOM
M  V30 1 O 9.4516 5.7369 0.0 0
M  V30 2 C 9.1426 4.7859 0.0 0
M  V30 3 O 8.1645 4.578 0.0 0
M  V30 4 C 9.8118 4.0427 0.0 0
M  V30 5 C 9.5027 3.0917 0.0 0
M  V30 6 C 10.7899 4.2506 0.0 0
M  V30 7 C 8.5246 2.8838 0.0 0
M  V30 8 C 10.1719 2.3485 0.0 0
M  V30 9 C 11.459 3.5075 0.0 0
M  V30 10 C 7.8555 3.6269 0.0 0
M  V30 11 C 8.2156 1.9327 0.0 0
M  V30 12 C 11.15 2.5564 0.0 0
M  V30 13 C 6.8773 3.419 0.0 0
M  V30 14 C 7.2374 1.7248 0.0 0
M  V30 15 C 6.5683 2.4679 0.0 0
M  V30 16 C 5.5902 2.26 0.0 0
M  V30 17 N 5.2811 1.309 0.0 0
M  V30 18 C 4.3301 1.0 0.0 0
M  V30 19 C 5.8689 0.5 0.0 0
M  V30 20 C 4.3301 0.0 0.0 0
M  V30 21 C 3.4641 1.5 0.0 0
M  V30 22 C 5.2811 -0.309 0.0 0
M  V30 23 C 6.8689 0.5 0.0 0
M  V30 24 C 3.4641 -0.4999 0.0 0
M  V30 25 C 2.598 0.9999 0.0 0
M  V30 26 C 5.5902 -1.26 0.0 0
M  V30 27 C 2.598 0.0 0.0 0
M  V30 28 C 1.732 -0.5 0.0 0
M  V30 29 O 1.732 -1.5 0.0 0
M  V30 30 N 0.866 0.0 0.0 0
M  V30 31 C 0.0 -0.5 0.0 0
M  V30 32 C -0.9659 -0.2411 0.0 0
M  V30 33 C -0.2588 -1.4659 0.0 0
M  V30 34 C -1.2247 -1.2071 0.0 0
M  V30 END ATOM
M  V30 BEGIN BOND
M  V30 1 2 1 2
M  V30 2 1 2 3
M  V30 3 1 2 4
M  V30 4 2 4 5
M  V30 5 1 4 6
M  V30 6 1 5 7
M  V30 7 1 5 8
M  V30 8 2 6 9
M  V30 9 2 7 10
M  V30 10 1 7 11
M  V30 11 2 8 12
M  V30 12 1 10 13
M  V30 13 2 11 14
M  V30 14 2 13 15
M  V30 15 1 15 16
M  V30 16 1 16 17
M  V30 17 1 17 18
M  V30 18 1 17 19
M  V30 19 2 18 20
M  V30 20 1 18 21
M  V30 21 2 19 22
M  V30 22 1 19 23
M  V30 23 1 20 24
M  V30 24 2 21 25
M  V30 25 1 22 26
M  V30 26 2 24 27
M  V30 27 1 27 28
M  V30 28 2 28 29
M  V30 29 1 28 30
M  V30 30 1 30 31
M  V30 31 1 31 32
M  V30 32 1 31 33
M  V30 33 1 32 34
M  V30 34 1 9 12
M  V30 35 1 14 15
M  V30 36 1 20 22
M  V30 37 1 25 27
M  V30 38 1 33 34
M  V30 END BOND
M  V30 END CTAB
M  END
>  <Molecule ChEMBL ID>
CHEMBL3695826

>  <Smiles>
Cc1c(C)n(Cc2ccc(-c3ccccc3C(=O)O)cc2)c2ccc(C(=O)NC3CCC3)cc12

>  <IC50_nM>
32

>  <Assay Description>
Binding affinity to GST-tagged PPAR-gamma-LBD (unknown origin) after 2 hrs by Lantha screen assay using fluormone Pan-PPAR green probe

$$$$
CHEMBL3695826
Actelion Java MolfileCreator 2.0

  0  0  0  0  0  0              0 V3000
M  V30 BEGIN CTAB
M  V30 COUNTS 34 38 0 0 0
M  V30 BEGIN ATOM
M  V30 1 O 9.4516 5.7369 0.0 0
M  V30 2 C 9.1426 4.7859 0.0 0
M  V30 3 O 8.1645 4.578 0.0 0
M  V30 4 C 9.8118 4.0427 0.0 0
M  V30 5 C 9.5027 3.0917 0.0 0
M  V30 6 C 10.7899 4.2506 0.0 0
M  V30 7 C 8.5246 2.8838 0.0 0
M  V30 8 C 10.1719 2.3485 0.0 0
M  V30 9 C 11.459 3.5075 0.0 0
M  V30 10 C 7.8555 3.6269 0.0 0
M  V30 11 C 8.2156 1.9327 0.0 0
M  V30 12 C 11.15 2.5564 0.0 0
M  V30 13 C 6.8773 3.419 0.0 0
M  V30 14 C 7.2374 1.7248 0.0 0
M  V30 15 C 6.5683 2.4679 0.0 0
M  V30 16 C 5.5902 2.26 0.0 0
M  V30 17 N 5.2811 1.309 0.0 0
M  V30 18 C 4.3301 1.0 0.0 0
M  V30 19 C 5.8689 0.5 0.0 0
M  V30 20 C 4.3301 0.0 0.0 0
M  V30 21 C 3.4641 1.5 0.0 0
M  V30 22 C 5.2811 -0.309 0.0 0
M  V30 23 C 6.8689 0.5 0.0 0
M  V30 24 C 3.4641 -0.4999 0.0 0
M  V30 25 C 2.598 0.9999 0.0 0
M  V30 26 C 5.5902 -1.26 0.0 0
M  V30 27 C 2.598 0.0 0.0 0
M  V30 28 C 1.732 -0.5 0.0 0
M  V30 29 O 1.732 -1.5 0.0 0
M  V30 30 N 0.866 0.0 0.0 0
M  V30 31 C 0.0 -0.5 0.0 0
M  V30 32 C -0.9659 -0.2411 0.0 0
M  V30 33 C -0.2588 -1.4659 0.0 0
M  V30 34 C -1.2247 -1.2071 0.0 0
M  V30 END ATOM
M  V30 BEGIN BOND
M  V30 1 2 1 2
M  V30 2 1 2 3
M  V30 3 1 2 4
M  V30 4 2 4 5
M  V30 5 1 4 6
M  V30 6 1 5 7
M  V30 7 1 5 8
M  V30 8 2 6 9
M  V30 9 2 7 10
M  V30 10 1 7 11
M  V30 11 2 8 12
M  V30 12 1 10 13
M  V30 13 2 11 14
M  V30 14 2 13 15
M  V30 15 1 15 16
M  V30 16 1 16 17
M  V30 17 1 17 18
M  V30 18 1 17 19
M  V30 19 2 18 20
M  V30 20 1 18 21
M  V30 21 2 19 22
M  V30 22 1 19 23
M  V30 23 1 20 24
M  V30 24 2 21 25
M  V30 25 1 22 26
M  V30 26 2 24 27
M  V30 27 1 27 28
M  V30 28 2 28 29
M  V30 29 1 28 30
M  V30 30 1 30 31
M  V30 31 1 31 32
M  V30 32 1 31 33
M  V30 33 1 32 34
M  V30 34 1 9 12
M  V30 35 1 14 15
M  V30 36 1 20 22
M  V30 37 1 25 27
M  V30 38 1 33 34
M  V30 END BOND
M  V30 END CTAB
M  END
>  <Molecule ChEMBL ID>
CHEMBL3695826

>  <Smiles>
Cc1c(C)n(Cc2ccc(-c3ccccc3C(=O)O)cc2)c2ccc(C(=O)NC3CCC3)cc12

>  <IC50_nM>
32

>  <Assay Description>
Lanthascreen Competitive Binding Assay: The assay was performed according to manufacturer protocol. A mixture of nM GST-PPARG-LBD, 5 nM Tb-GST-antibody, 5 nM Fluormone Pan-PPAR Green, and serial dilutions of the experimental compound, beginning at 10 ׬M downwards, was added to wells of black 384-well low-volume plates (Greiner) to a total volume of 18 ׬L. All dilutions were made in TR-FRET assay buffer C. DMSO at 2% final concentration was used as a no-ligand control. Experiment was performed in triplicate, and incubated for 2 hours in the dark prior to assay read in Perkin Elmer ViewLux ultra HTS microplate reader. FRET signal was measured by excitation at 340 nm and emission at 520 nm for fluorescein and 490 nm for terbium. Fold change over DMSO was calculated using GraphPad Prism Software (La Jolla, Calif.) by calculating 520 nm/490 nm ratio. Graphs were plotted as fold change of FRET signal for compound treatment over DMSO-only control.

$$$$
CHEMBL3695829
Actelion Java MolfileCreator 2.0

  0  0  0  0  0  0              0 V3000
M  V30 BEGIN CTAB
M  V30 COUNTS 38 42 0 0 0
M  V30 BEGIN ATOM
M  V30 1 O 11.8592 -3.5669 0.0 0
M  V30 2 C 10.8811 -3.7748 0.0 0
M  V30 3 O 10.212 -3.0316 0.0 0
M  V30 4 C 10.5721 -4.7258 0.0 0
M  V30 5 C 9.5939 -4.9337 0.0 0
M  V30 6 C 11.2412 -5.469 0.0 0
M  V30 7 C 8.9248 -4.1906 0.0 0
M  V30 8 C 9.2849 -5.8848 0.0 0
M  V30 9 C 10.9322 -6.42 0.0 0
M  V30 10 C 9.2338 -3.2395 0.0 0
M  V30 11 C 7.9466 -4.3985 0.0 0
M  V30 12 C 9.954 -6.6279 0.0 0
M  V30 13 C 8.5647 -2.4964 0.0 0
M  V30 14 C 7.2775 -3.6554 0.0 0
M  V30 15 C 7.5865 -2.7043 0.0 0
M  V30 16 C 6.9174 -1.9612 0.0 0
M  V30 17 N 5.9392 -2.1691 0.0 0
M  V30 18 C 5.1961 -1.4999 0.0 0
M  V30 19 C 5.5325 -3.0826 0.0 0
M  V30 20 C 4.3301 -1.9999 0.0 0
M  V30 21 C 5.1961 -0.4999 0.0 0
M  V30 22 C 4.538 -2.9781 0.0 0
M  V30 23 C 6.0325 -3.9487 0.0 0
M  V30 24 C 3.4641 -1.5 0.0 0
M  V30 25 C 4.3301 0.0 0.0 0
M  V30 26 C 3.8689 -3.7212 0.0 0
M  V30 27 C 3.4641 -0.5 0.0 0
M  V30 28 C 2.598 0.0 0.0 0
M  V30 29 O 2.598 1.0 0.0 0
M  V30 30 N 1.732 -0.5 0.0 0
M  V30 31 C 0.866 0.0 0.0 0
M  V30 32 C 0.0 -0.5 0.0 0
M  V30 33 C -0.866 0.0 0.0 0
M  V30 34 C 0.0 -1.4999 0.0 0
M  V30 35 N -0.866 1.0 0.0 0
M  V30 36 C -1.732 -0.4999 0.0 0
M  V30 37 C -0.866 -1.9999 0.0 0
M  V30 38 C -1.732 -1.4999 0.0 0
M  V30 END ATOM
M  V30 BEGIN BOND
M  V30 1 2 1 2
M  V30 2 1 2 3
M  V30 3 1 2 4
M  V30 4 2 4 5
M  V30 5 1 4 6
M  V30 6 1 5 7
M  V30 7 1 5 8
M  V30 8 2 6 9
M  V30 9 2 7 10
M  V30 10 1 7 11
M  V30 11 2 8 12
M  V30 12 1 10 13
M  V30 13 2 11 14
M  V30 14 2 13 15
M  V30 15 1 15 16
M  V30 16 1 16 17
M  V30 17 1 17 18
M  V30 18 1 17 19
M  V30 19 2 18 20
M  V30 20 1 18 21
M  V30 21 2 19 22
M  V30 22 1 19 23
M  V30 23 1 20 24
M  V30 24 2 21 25
M  V30 25 1 22 26
M  V30 26 2 24 27
M  V30 27 1 27 28
M  V30 28 2 28 29
M  V30 29 1 28 30
M  V30 30 1 30 31
M  V30 31 1 31 32
M  V30 32 2 32 33
M  V30 33 1 32 34
M  V30 34 1 33 35
M  V30 35 1 33 36
M  V30 36 2 34 37
M  V30 37 2 36 38
M  V30 38 1 9 12
M  V30 39 1 14 15
M  V30 40 1 20 22
M  V30 41 1 25 27
M  V30 42 1 37 38
M  V30 END BOND
M  V30 END CTAB
M  END
>  <Molecule ChEMBL ID>
CHEMBL3695829

>  <Smiles>
Cc1c(C)n(Cc2ccc(-c3ccccc3C(=O)O)cc2)c2ccc(C(=O)NCc3ccccc3N)cc12

>  <IC50_nM>
32

>  <Assay Description>
Lanthascreen Competitive Binding Assay: The assay was performed according to manufacturer protocol. A mixture of nM GST-PPARG-LBD, 5 nM Tb-GST-antibody, 5 nM Fluormone Pan-PPAR Green, and serial dilutions of the experimental compound, beginning at 10 ׬M downwards, was added to wells of black 384-well low-volume plates (Greiner) to a total volume of 18 ׬L. All dilutions were made in TR-FRET assay buffer C. DMSO at 2% final concentration was used as a no-ligand control. Experiment was performed in triplicate, and incubated for 2 hours in the dark prior to assay read in Perkin Elmer ViewLux ultra HTS microplate reader. FRET signal was measured by excitation at 340 nm and emission at 520 nm for fluorescein and 490 nm for terbium. Fold change over DMSO was calculated using GraphPad Prism Software (La Jolla, Calif.) by calculating 520 nm/490 nm ratio. Graphs were plotted as fold change of FRET signal for compound treatment over DMSO-only control.

$$$$
CHEMBL3699407
Actelion Java MolfileCreator 2.0

  0  0  0  0  0  0              0 V3000
M  V30 BEGIN CTAB
M  V30 COUNTS 41 46 0 0 0
M  V30 BEGIN ATOM
M  V30 1 O 11.8592 -3.5669 0.0 0
M  V30 2 C 10.8811 -3.7748 0.0 0
M  V30 3 O 10.212 -3.0316 0.0 0
M  V30 4 C 10.5721 -4.7258 0.0 0
M  V30 5 C 9.5939 -4.9337 0.0 0
M  V30 6 C 11.2412 -5.469 0.0 0
M  V30 7 C 8.9248 -4.1906 0.0 0
M  V30 8 C 9.2849 -5.8848 0.0 0
M  V30 9 C 10.9322 -6.42 0.0 0
M  V30 10 C 9.2338 -3.2395 0.0 0
M  V30 11 C 7.9466 -4.3985 0.0 0
M  V30 12 C 9.954 -6.6279 0.0 0
M  V30 13 C 8.5647 -2.4964 0.0 0
M  V30 14 C 7.2775 -3.6554 0.0 0
M  V30 15 C 7.5865 -2.7043 0.0 0
M  V30 16 C 6.9174 -1.9612 0.0 0
M  V30 17 N 5.9392 -2.1691 0.0 0
M  V30 18 C 5.1961 -1.4999 0.0 0
M  V30 19 C 5.5325 -3.0826 0.0 0
M  V30 20 C 4.3301 -1.9999 0.0 0
M  V30 21 C 5.1961 -0.4999 0.0 0
M  V30 22 C 4.538 -2.9781 0.0 0
M  V30 23 C 6.0325 -3.9487 0.0 0
M  V30 24 C 3.4641 -1.5 0.0 0
M  V30 25 C 4.3301 0.0 0.0 0
M  V30 26 C 3.8689 -3.7212 0.0 0
M  V30 27 C 3.4641 -0.5 0.0 0
M  V30 28 C 2.598 0.0 0.0 0
M  V30 29 O 2.598 1.0 0.0 0
M  V30 30 N 1.732 -0.5 0.0 0
M  V30 31 C 0.866 0.0 0.0 0 CFG=1
M  V30 32 C 0.866 1.0 0.0 0
M  V30 33 C 0.0 -0.5 0.0 0
M  V30 34 C 1.732 1.4999 0.0 0
M  V30 35 C 0.0 1.4999 0.0 0
M  V30 36 N 1.732 2.5 0.0 0
M  V30 37 C 0.0 2.5 0.0 0
M  V30 38 C 0.866 3.0 0.0 0
M  V30 39 C 0.866 4.0 0.0 0
M  V30 40 C 1.366 4.866 0.0 0
M  V30 41 C 0.366 4.866 0.0 0
M  V30 END ATOM
M  V30 BEGIN BOND
M  V30 1 2 1 2
M  V30 2 1 2 3
M  V30 3 1 2 4
M  V30 4 2 4 5
M  V30 5 1 4 6
M  V30 6 1 5 7
M  V30 7 1 5 8
M  V30 8 2 6 9
M  V30 9 2 7 10
M  V30 10 1 7 11
M  V30 11 2 8 12
M  V30 12 1 10 13
M  V30 13 2 11 14
M  V30 14 2 13 15
M  V30 15 1 15 16
M  V30 16 1 16 17
M  V30 17 1 17 18
M  V30 18 1 17 19
M  V30 19 2 18 20
M  V30 20 1 18 21
M  V30 21 2 19 22
M  V30 22 1 19 23
M  V30 23 1 20 24
M  V30 24 2 21 25
M  V30 25 1 22 26
M  V30 26 2 24 27
M  V30 27 1 27 28
M  V30 28 2 28 29
M  V30 29 1 28 30
M  V30 30 1 30 31
M  V30 31 1 31 32
M  V30 32 1 31 33 CFG=3
M  V30 33 2 32 34
M  V30 34 1 32 35
M  V30 35 1 34 36
M  V30 36 2 35 37
M  V30 37 2 36 38
M  V30 38 1 38 39
M  V30 39 1 39 40
M  V30 40 1 39 41
M  V30 41 1 9 12
M  V30 42 1 14 15
M  V30 43 1 20 22
M  V30 44 1 25 27
M  V30 45 1 37 38
M  V30 46 1 40 41
M  V30 END BOND
M  V30 BEGIN COLLECTION
M  V30 MDLV30/STEABS ATOMS=(1 31)
M  V30 END COLLECTION
M  V30 END CTAB
M  END
>  <Molecule ChEMBL ID>
CHEMBL3699407

>  <Smiles>
Cc1c(C)n(Cc2ccc(-c3ccccc3C(=O)O)cc2)c2ccc(C(=O)N[C@H](C)c3ccc(C4CC4)nc3)cc12

>  <IC50_nM>
32

>  <Assay Description>
Lanthascreen Competitive Binding Assay: The assay was performed according to manufacturer protocol. A mixture of nM GST-PPARG-LBD, 5 nM Tb-GST-antibody, 5 nM Fluormone Pan-PPAR Green, and serial dilutions of the experimental compound, beginning at 10 ׬M downwards, was added to wells of black 384-well low-volume plates (Greiner) to a total volume of 18 ׬L. All dilutions were made in TR-FRET assay buffer C. DMSO at 2% final concentration was used as a no-ligand control. Experiment was performed in triplicate, and incubated for 2 hours in the dark prior to assay read in Perkin Elmer ViewLux ultra HTS microplate reader. FRET signal was measured by excitation at 340 nm and emission at 520 nm for fluorescein and 490 nm for terbium. Fold change over DMSO was calculated using GraphPad Prism Software (La Jolla, Calif.) by calculating 520 nm/490 nm ratio. Graphs were plotted as fold change of FRET signal for compound treatment over DMSO-only control.

$$$$
CHEMBL2338481
Actelion Java MolfileCreator 2.0

  0  0  0  0  0  0              0 V3000
M  V30 BEGIN CTAB
M  V30 COUNTS 30 32 0 0 0
M  V30 BEGIN ATOM
M  V30 1 Cl 7.7942 -0.75 0.0 0
M  V30 2 C 6.4951 0.0 0.0 0
M  V30 3 C 6.4951 1.5 0.0 0
M  V30 4 C 5.1961 -0.75 0.0 0
M  V30 5 O 7.7942 2.25 0.0 0
M  V30 6 C 5.1961 2.25 0.0 0
M  V30 7 C 3.8971 0.0 0.0 0
M  V30 8 C 7.7942 3.75 0.0 0
M  V30 9 Cl 5.1961 3.75 0.0 0
M  V30 10 C 3.8971 1.5 0.0 0
M  V30 11 N 2.598 -0.75 0.0 0
M  V30 12 C 9.0932 4.5 0.0 0
M  V30 13 C 6.4951 4.5 0.0 0
M  V30 14 S 1.299 0.0 0.0 0
M  V30 15 N 9.0932 6.0 0.0 0
M  V30 16 C 6.4951 6.0 0.0 0
M  V30 17 O 2.049 1.299 0.0 0
M  V30 18 O 0.549 1.299 0.0 0
M  V30 19 C 0.0 -0.75 0.0 0
M  V30 20 C 7.7942 6.75 0.0 0
M  V30 21 C 5.1961 6.75 0.0 0
M  V30 22 C -1.299 0.0 0.0 0
M  V30 23 C 0.0 -2.25 0.0 0
M  V30 24 O 5.1961 8.25 0.0 0
M  V30 25 N 3.8971 6.0 0.0 0
M  V30 26 Cl -1.299 1.5 0.0 0
M  V30 27 C -2.598 -0.75 0.0 0
M  V30 28 C -1.299 -3.0 0.0 0
M  V30 29 C -2.598 -2.25 0.0 0
M  V30 30 Cl -3.8971 -3.0 0.0 0
M  V30 END ATOM
M  V30 BEGIN BOND
M  V30 1 1 1 2
M  V30 2 2 2 3
M  V30 3 1 2 4
M  V30 4 1 3 5
M  V30 5 1 3 6
M  V30 6 2 4 7
M  V30 7 1 5 8
M  V30 8 1 6 9
M  V30 9 2 6 10
M  V30 10 1 7 11
M  V30 11 2 8 12
M  V30 12 1 8 13
M  V30 13 1 11 14
M  V30 14 1 12 15
M  V30 15 2 13 16
M  V30 16 2 14 17
M  V30 17 2 14 18
M  V30 18 1 14 19
M  V30 19 2 15 20
M  V30 20 1 16 21
M  V30 21 2 19 22
M  V30 22 1 19 23
M  V30 23 2 21 24
M  V30 24 1 21 25
M  V30 25 1 22 26
M  V30 26 1 22 27
M  V30 27 2 23 28
M  V30 28 2 27 29
M  V30 29 1 29 30
M  V30 30 1 7 10
M  V30 31 1 16 20
M  V30 32 1 28 29
M  V30 END BOND
M  V30 END CTAB
M  END
>  <Molecule ChEMBL ID>
CHEMBL2338481

>  <Smiles>
NC(=O)c1cncc(Oc2c(Cl)cc(NS(=O)(=O)c3ccc(Cl)cc3Cl)cc2Cl)c1

>  <IC50_nM>
32

>  <Assay Description>
Displacement of [3H]-rosiglitazone from GST-tagged PPARgammaLBD (unknown origin) after 1 hr by scintillation proximity assay

$$$$
CHEMBL3695829
Actelion Java MolfileCreator 2.0

  0  0  0  0  0  0              0 V3000
M  V30 BEGIN CTAB
M  V30 COUNTS 38 42 0 0 0
M  V30 BEGIN ATOM
M  V30 1 O 11.8592 -3.5669 0.0 0
M  V30 2 C 10.8811 -3.7748 0.0 0
M  V30 3 O 10.212 -3.0316 0.0 0
M  V30 4 C 10.5721 -4.7258 0.0 0
M  V30 5 C 9.5939 -4.9337 0.0 0
M  V30 6 C 11.2412 -5.469 0.0 0
M  V30 7 C 8.9248 -4.1906 0.0 0
M  V30 8 C 9.2849 -5.8848 0.0 0
M  V30 9 C 10.9322 -6.42 0.0 0
M  V30 10 C 9.2338 -3.2395 0.0 0
M  V30 11 C 7.9466 -4.3985 0.0 0
M  V30 12 C 9.954 -6.6279 0.0 0
M  V30 13 C 8.5647 -2.4964 0.0 0
M  V30 14 C 7.2775 -3.6554 0.0 0
M  V30 15 C 7.5865 -2.7043 0.0 0
M  V30 16 C 6.9174 -1.9612 0.0 0
M  V30 17 N 5.9392 -2.1691 0.0 0
M  V30 18 C 5.1961 -1.4999 0.0 0
M  V30 19 C 5.5325 -3.0826 0.0 0
M  V30 20 C 4.3301 -1.9999 0.0 0
M  V30 21 C 5.1961 -0.4999 0.0 0
M  V30 22 C 4.538 -2.9781 0.0 0
M  V30 23 C 6.0325 -3.9487 0.0 0
M  V30 24 C 3.4641 -1.5 0.0 0
M  V30 25 C 4.3301 0.0 0.0 0
M  V30 26 C 3.8689 -3.7212 0.0 0
M  V30 27 C 3.4641 -0.5 0.0 0
M  V30 28 C 2.598 0.0 0.0 0
M  V30 29 O 2.598 1.0 0.0 0
M  V30 30 N 1.732 -0.5 0.0 0
M  V30 31 C 0.866 0.0 0.0 0
M  V30 32 C 0.0 -0.5 0.0 0
M  V30 33 C -0.866 0.0 0.0 0
M  V30 34 C 0.0 -1.4999 0.0 0
M  V30 35 N -0.866 1.0 0.0 0
M  V30 36 C -1.732 -0.4999 0.0 0
M  V30 37 C -0.866 -1.9999 0.0 0
M  V30 38 C -1.732 -1.4999 0.0 0
M  V30 END ATOM
M  V30 BEGIN BOND
M  V30 1 2 1 2
M  V30 2 1 2 3
M  V30 3 1 2 4
M  V30 4 2 4 5
M  V30 5 1 4 6
M  V30 6 1 5 7
M  V30 7 1 5 8
M  V30 8 2 6 9
M  V30 9 2 7 10
M  V30 10 1 7 11
M  V30 11 2 8 12
M  V30 12 1 10 13
M  V30 13 2 11 14
M  V30 14 2 13 15
M  V30 15 1 15 16
M  V30 16 1 16 17
M  V30 17 1 17 18
M  V30 18 1 17 19
M  V30 19 2 18 20
M  V30 20 1 18 21
M  V30 21 2 19 22
M  V30 22 1 19 23
M  V30 23 1 20 24
M  V30 24 2 21 25
M  V30 25 1 22 26
M  V30 26 2 24 27
M  V30 27 1 27 28
M  V30 28 2 28 29
M  V30 29 1 28 30
M  V30 30 1 30 31
M  V30 31 1 31 32
M  V30 32 2 32 33
M  V30 33 1 32 34
M  V30 34 1 33 35
M  V30 35 1 33 36
M  V30 36 2 34 37
M  V30 37 2 36 38
M  V30 38 1 9 12
M  V30 39 1 14 15
M  V30 40 1 20 22
M  V30 41 1 25 27
M  V30 42 1 37 38
M  V30 END BOND
M  V30 END CTAB
M  END
>  <Molecule ChEMBL ID>
CHEMBL3695829

>  <Smiles>
Cc1c(C)n(Cc2ccc(-c3ccccc3C(=O)O)cc2)c2ccc(C(=O)NCc3ccccc3N)cc12

>  <IC50_nM>
32

>  <Assay Description>
Binding affinity to GST-tagged PPAR-gamma-LBD (unknown origin) after 2 hrs by Lantha screen assay using fluormone Pan-PPAR green probe

$$$$
CHEMBL3699362
Actelion Java MolfileCreator 2.0

  0  0  0  0  0  0              0 V3000
M  V30 BEGIN CTAB
M  V30 COUNTS 40 44 0 0 0
M  V30 BEGIN ATOM
M  V30 1 F 4.3301 0.9999 0.0 0
M  V30 2 C 4.3301 0.0 0.0 0
M  V30 3 C 3.4641 -0.5 0.0 0
M  V30 4 C 5.1961 -0.5 0.0 0
M  V30 5 C 3.4641 -1.5 0.0 0
M  V30 6 C 2.598 0.0 0.0 0 CFG=1
M  V30 7 N 5.1961 -1.5 0.0 0
M  V30 8 F 2.598 -1.9999 0.0 0
M  V30 9 C 4.3301 -2.0 0.0 0
M  V30 10 N 1.732 -0.5 0.0 0
M  V30 11 C 2.598 1.0 0.0 0
M  V30 12 C 0.866 0.0 0.0 0
M  V30 13 O 0.866 1.0 0.0 0
M  V30 14 C 0.0 -0.5 0.0 0
M  V30 15 C 0.0 -1.4999 0.0 0
M  V30 16 C -0.866 0.0 0.0 0
M  V30 17 C -0.866 -1.9999 0.0 0
M  V30 18 C -1.732 -0.4999 0.0 0
M  V30 19 C -1.732 -1.4999 0.0 0
M  V30 20 C -1.0739 -2.9781 0.0 0
M  V30 21 N -2.4751 -2.1691 0.0 0
M  V30 22 C -2.0684 -3.0826 0.0 0
M  V30 23 C -0.4048 -3.7212 0.0 0
M  V30 24 C -3.4533 -1.9612 0.0 0
M  V30 25 C -2.5684 -3.9487 0.0 0
M  V30 26 C -4.1224 -2.7043 0.0 0
M  V30 27 C -5.1006 -2.4964 0.0 0
M  V30 28 C -3.8134 -3.6554 0.0 0
M  V30 29 C -5.7697 -3.2395 0.0 0
M  V30 30 C -4.4825 -4.3985 0.0 0
M  V30 31 C -5.4607 -4.1906 0.0 0
M  V30 32 C -6.1298 -4.9337 0.0 0
M  V30 33 C -7.108 -4.7258 0.0 0
M  V30 34 C -5.8208 -5.8848 0.0 0
M  V30 35 C -7.417 -3.7748 0.0 0
M  V30 36 C -7.7771 -5.469 0.0 0
M  V30 37 C -6.4899 -6.6279 0.0 0
M  V30 38 O -6.7478 -3.0316 0.0 0
M  V30 39 O -8.3951 -3.5669 0.0 0
M  V30 40 C -7.4681 -6.42 0.0 0
M  V30 END ATOM
M  V30 BEGIN BOND
M  V30 1 1 1 2
M  V30 2 2 2 3
M  V30 3 1 2 4
M  V30 4 1 3 5
M  V30 5 1 3 6
M  V30 6 2 4 7
M  V30 7 1 5 8
M  V30 8 2 5 9
M  V30 9 1 6 10
M  V30 10 1 6 11 CFG=1
M  V30 11 1 10 12
M  V30 12 2 12 13
M  V30 13 1 12 14
M  V30 14 2 14 15
M  V30 15 1 14 16
M  V30 16 1 15 17
M  V30 17 2 16 18
M  V30 18 2 17 19
M  V30 19 1 17 20
M  V30 20 1 19 21
M  V30 21 2 20 22
M  V30 22 1 20 23
M  V30 23 1 21 24
M  V30 24 1 22 25
M  V30 25 1 24 26
M  V30 26 2 26 27
M  V30 27 1 26 28
M  V30 28 1 27 29
M  V30 29 2 28 30
M  V30 30 2 29 31
M  V30 31 1 31 32
M  V30 32 2 32 33
M  V30 33 1 32 34
M  V30 34 1 33 35
M  V30 35 1 33 36
M  V30 36 2 34 37
M  V30 37 2 35 38
M  V30 38 1 35 39
M  V30 39 2 36 40
M  V30 40 1 7 9
M  V30 41 1 18 19
M  V30 42 1 21 22
M  V30 43 1 30 31
M  V30 44 1 37 40
M  V30 END BOND
M  V30 BEGIN COLLECTION
M  V30 MDLV30/STEABS ATOMS=(1 6)
M  V30 END COLLECTION
M  V30 END CTAB
M  END
>  <Molecule ChEMBL ID>
CHEMBL3699362

>  <Smiles>
Cc1c(C)n(Cc2ccc(-c3ccccc3C(=O)O)cc2)c2ccc(C(=O)N[C@@H](C)c3c(F)cncc3F)cc12

>  <IC50_nM>
33

>  <Assay Description>
Lanthascreen Competitive Binding Assay: The assay was performed according to manufacturer protocol. A mixture of nM GST-PPARG-LBD, 5 nM Tb-GST-antibody, 5 nM Fluormone Pan-PPAR Green, and serial dilutions of the experimental compound, beginning at 10 ׬M downwards, was added to wells of black 384-well low-volume plates (Greiner) to a total volume of 18 ׬L. All dilutions were made in TR-FRET assay buffer C. DMSO at 2% final concentration was used as a no-ligand control. Experiment was performed in triplicate, and incubated for 2 hours in the dark prior to assay read in Perkin Elmer ViewLux ultra HTS microplate reader. FRET signal was measured by excitation at 340 nm and emission at 520 nm for fluorescein and 490 nm for terbium. Fold change over DMSO was calculated using GraphPad Prism Software (La Jolla, Calif.) by calculating 520 nm/490 nm ratio. Graphs were plotted as fold change of FRET signal for compound treatment over DMSO-only control.

$$$$
CHEMBL192646
Actelion Java MolfileCreator 2.0

  0  0  0  0  0  0              0 V3000
M  V30 BEGIN CTAB
M  V30 COUNTS 38 42 0 0 0
M  V30 BEGIN ATOM
M  V30 1 Cl 6.9905 -6.3351 0.0 0
M  V30 2 C 7.2995 -5.3841 0.0 0
M  V30 3 C 8.2777 -5.1762 0.0 0
M  V30 4 C 6.6304 -4.6409 0.0 0
M  V30 5 C 8.5867 -4.2251 0.0 0
M  V30 6 C 6.9394 -3.6899 0.0 0
M  V30 7 O 9.5002 -3.8184 0.0 0
M  V30 8 C 7.9176 -3.482 0.0 0
M  V30 9 N 9.3957 -2.8238 0.0 0
M  V30 10 C 8.4176 -2.6159 0.0 0
M  V30 11 N 8.0108 -1.7024 0.0 0
M  V30 12 C 8.5108 -0.8364 0.0 0
M  V30 13 C 7.0327 -1.4945 0.0 0
M  V30 14 C 7.8417 -0.0932 0.0 0
M  V30 15 C 9.489 -0.6284 0.0 0
M  V30 16 C 6.9282 -0.5 0.0 0
M  V30 17 C 6.2895 -2.1636 0.0 0
M  V30 18 C 8.1507 0.8577 0.0 0
M  V30 19 C 9.798 0.3225 0.0 0
M  V30 20 O 6.0621 0.0 0.0 0
M  V30 21 C 9.1289 1.0657 0.0 0
M  V30 22 C 5.1961 -0.5 0.0 0
M  V30 23 O 9.4379 2.0167 0.0 0
M  V30 24 C 4.3301 0.0 0.0 0
M  V30 25 C 5.1961 -1.4999 0.0 0
M  V30 26 C 8.7687 2.7599 0.0 0
M  V30 27 C 3.4641 -0.5 0.0 0
M  V30 28 C 4.3301 -1.9999 0.0 0
M  V30 29 F 8.0256 2.0907 0.0 0
M  V30 30 F 8.0996 3.503 0.0 0
M  V30 31 F 9.5119 3.429 0.0 0
M  V30 32 O 2.598 0.0 0.0 0
M  V30 33 C 3.4641 -1.4999 0.0 0
M  V30 34 C 1.732 -0.5 0.0 0 CFG=2
M  V30 35 C 0.866 0.0 0.0 0
M  V30 36 C 1.732 -1.5 0.0 0
M  V30 37 O 0.866 1.0 0.0 0
M  V30 38 O 0.0 -0.5 0.0 0
M  V30 END ATOM
M  V30 BEGIN BOND
M  V30 1 1 1 2
M  V30 2 2 2 3
M  V30 3 1 2 4
M  V30 4 1 3 5
M  V30 5 2 4 6
M  V30 6 1 5 7
M  V30 7 2 5 8
M  V30 8 1 7 9
M  V30 9 1 8 10
M  V30 10 1 10 11
M  V30 11 1 11 12
M  V30 12 1 11 13
M  V30 13 2 12 14
M  V30 14 1 12 15
M  V30 15 2 13 16
M  V30 16 1 13 17
M  V30 17 1 14 18
M  V30 18 2 15 19
M  V30 19 1 16 20
M  V30 20 2 18 21
M  V30 21 1 20 22
M  V30 22 1 21 23
M  V30 23 2 22 24
M  V30 24 1 22 25
M  V30 25 1 23 26
M  V30 26 1 24 27
M  V30 27 2 25 28
M  V30 28 1 26 29
M  V30 29 1 26 30
M  V30 30 1 26 31
M  V30 31 1 27 32
M  V30 32 2 27 33
M  V30 33 1 32 34
M  V30 34 1 34 35
M  V30 35 1 34 36 CFG=1
M  V30 36 2 35 37
M  V30 37 1 35 38
M  V30 38 1 6 8
M  V30 39 2 9 10
M  V30 40 1 14 16
M  V30 41 1 19 21
M  V30 42 1 28 33
M  V30 END BOND
M  V30 BEGIN COLLECTION
M  V30 MDLV30/STEABS ATOMS=(1 34)
M  V30 END COLLECTION
M  V30 END CTAB
M  END
>  <Molecule ChEMBL ID>
CHEMBL192646

>  <Smiles>
Cc1c(Oc2cccc(O[C@@H](C)C(=O)O)c2)c2cc(OC(F)(F)F)ccc2n1-c1noc2cc(Cl)ccc12

>  <IC50_nM>
33

>  <Assay Description>
Inhibition of human peroxisome proliferator activated receptor gamma binding

$$$$
CHEMBL387373
Actelion Java MolfileCreator 2.0

  0  0  0  0  0  0              0 V3000
M  V30 BEGIN CTAB
M  V30 COUNTS 44 48 0 0 0
M  V30 BEGIN ATOM
M  V30 1 O 4.3301 -5.0 0.0 0
M  V30 2 C 3.4641 -4.5 0.0 0
M  V30 3 O 2.598 -5.0 0.0 0
M  V30 4 N 3.4641 -3.5 0.0 0
M  V30 5 C 1.732 -4.5 0.0 0
M  V30 6 C 4.3301 -2.9999 0.0 0
M  V30 7 C 2.598 -3.0 0.0 0
M  V30 8 C 0.866 -5.0 0.0 0
M  V30 9 C 4.3301 -1.9999 0.0 0
M  V30 10 C 2.598 -2.0 0.0 0
M  V30 11 C 1.366 -5.866 0.0 0
M  V30 12 C 0.0 -5.4999 0.0 0
M  V30 13 C 0.366 -4.1339 0.0 0
M  V30 14 C 3.4641 -1.5 0.0 0
M  V30 15 C 5.1961 -1.4999 0.0 0
M  V30 16 C 3.4641 -0.5 0.0 0
M  V30 17 C 5.1961 -0.5 0.0 0
M  V30 18 C 6.0621 -1.9999 0.0 0
M  V30 19 O 2.598 0.0 0.0 0
M  V30 20 C 4.3301 0.0 0.0 0
M  V30 21 C 6.9282 -1.5 0.0 0
M  V30 22 C 1.732 -0.5 0.0 0
M  V30 23 C 7.7942 -2.0 0.0 0
M  V30 24 C 0.866 0.0 0.0 0
M  V30 25 O 7.7942 -3.0 0.0 0
M  V30 26 O 8.6602 -1.5 0.0 0
M  V30 27 C 0.0 -0.5 0.0 0
M  V30 28 N -0.9135 -0.0932 0.0 0
M  V30 29 C -0.1045 -1.4945 0.0 0
M  V30 30 C -1.5826 -0.8364 0.0 0
M  V30 31 O -1.0826 -1.7024 0.0 0
M  V30 32 C 0.6386 -2.1636 0.0 0
M  V30 33 C -2.5771 -0.7318 0.0 0
M  V30 34 C -2.9839 0.1816 0.0 0
M  V30 35 C -3.1649 -1.5408 0.0 0
M  V30 36 C -3.9784 0.2861 0.0 0
M  V30 37 C -4.1595 -1.4363 0.0 0
M  V30 38 C -4.5662 -0.5228 0.0 0
M  V30 39 C -5.5607 -0.4182 0.0 0
M  V30 40 C -5.9675 0.4952 0.0 0
M  V30 41 C -6.1485 -1.2273 0.0 0
M  V30 42 C -6.962 0.5997 0.0 0
M  V30 43 C -7.143 -1.1227 0.0 0
M  V30 44 C -7.5498 -0.2092 0.0 0
M  V30 END ATOM
M  V30 BEGIN BOND
M  V30 1 2 1 2
M  V30 2 1 2 3
M  V30 3 1 2 4
M  V30 4 1 3 5
M  V30 5 1 4 6
M  V30 6 1 4 7
M  V30 7 1 5 8
M  V30 8 1 6 9
M  V30 9 1 7 10
M  V30 10 1 8 11
M  V30 11 1 8 12
M  V30 12 1 8 13
M  V30 13 2 9 14
M  V30 14 1 9 15
M  V30 15 1 14 16
M  V30 16 2 15 17
M  V30 17 1 15 18
M  V30 18 1 16 19
M  V30 19 2 16 20
M  V30 20 1 18 21
M  V30 21 1 19 22
M  V30 22 1 21 23
M  V30 23 1 22 24
M  V30 24 2 23 25
M  V30 25 1 23 26
M  V30 26 1 24 27
M  V30 27 1 27 28
M  V30 28 2 27 29
M  V30 29 2 28 30
M  V30 30 1 29 31
M  V30 31 1 29 32
M  V30 32 1 30 33
M  V30 33 2 33 34
M  V30 34 1 33 35
M  V30 35 1 34 36
M  V30 36 2 35 37
M  V30 37 2 36 38
M  V30 38 1 38 39
M  V30 39 2 39 40
M  V30 40 1 39 41
M  V30 41 1 40 42
M  V30 42 2 41 43
M  V30 43 2 42 44
M  V30 44 1 10 14
M  V30 45 1 17 20
M  V30 46 1 30 31
M  V30 47 1 37 38
M  V30 48 1 43 44
M  V30 END BOND
M  V30 END CTAB
M  END
>  <Molecule ChEMBL ID>
CHEMBL387373

>  <Smiles>
Cc1oc(-c2ccc(-c3ccccc3)cc2)nc1CCOc1ccc(CCC(=O)O)c2c1CCN(C(=O)OCC(C)(C)C)C2

>  <IC50_nM>
33

>  <Assay Description>
Displacement of tritium labeled ligand from human PPARgamma by SPA assay

$$$$
CHEMBL3695816
Actelion Java MolfileCreator 2.0

  0  0  0  0  0  0              0 V3000
M  V30 BEGIN CTAB
M  V30 COUNTS 40 45 0 0 0
M  V30 BEGIN ATOM
M  V30 1 O 11.8592 -3.5669 0.0 0
M  V30 2 C 10.8811 -3.7748 0.0 0
M  V30 3 O 10.212 -3.0316 0.0 0
M  V30 4 C 10.5721 -4.7258 0.0 0
M  V30 5 C 9.5939 -4.9337 0.0 0
M  V30 6 C 11.2412 -5.469 0.0 0
M  V30 7 C 8.9248 -4.1906 0.0 0
M  V30 8 C 9.2849 -5.8848 0.0 0
M  V30 9 C 10.9322 -6.42 0.0 0
M  V30 10 C 9.2338 -3.2395 0.0 0
M  V30 11 C 7.9466 -4.3985 0.0 0
M  V30 12 C 9.954 -6.6279 0.0 0
M  V30 13 C 8.5647 -2.4964 0.0 0
M  V30 14 C 7.2775 -3.6554 0.0 0
M  V30 15 C 7.5865 -2.7043 0.0 0
M  V30 16 C 6.9174 -1.9612 0.0 0
M  V30 17 N 5.9392 -2.1691 0.0 0
M  V30 18 C 5.1961 -1.4999 0.0 0
M  V30 19 C 5.5325 -3.0826 0.0 0
M  V30 20 C 4.3301 -1.9999 0.0 0
M  V30 21 C 5.1961 -0.4999 0.0 0
M  V30 22 C 4.538 -2.9781 0.0 0
M  V30 23 C 6.0325 -3.9487 0.0 0
M  V30 24 C 3.4641 -1.5 0.0 0
M  V30 25 C 4.3301 0.0 0.0 0
M  V30 26 C 3.8689 -3.7212 0.0 0
M  V30 27 C 3.4641 -0.5 0.0 0
M  V30 28 C 2.598 0.0 0.0 0
M  V30 29 O 2.598 1.0 0.0 0
M  V30 30 N 1.732 -0.5 0.0 0
M  V30 31 C 0.866 0.0 0.0 0
M  V30 32 C 0.0 -0.5 0.0 0
M  V30 33 C -0.866 0.0 0.0 0
M  V30 34 C 0.0 -1.5 0.0 0
M  V30 35 C -1.732 -0.4999 0.0 0
M  V30 36 C -0.866 -1.9999 0.0 0
M  V30 37 O -2.6831 -0.1909 0.0 0
M  V30 38 C -1.732 -1.4999 0.0 0
M  V30 39 C -3.2708 -0.9999 0.0 0
M  V30 40 O -2.6831 -1.809 0.0 0
M  V30 END ATOM
M  V30 BEGIN BOND
M  V30 1 2 1 2
M  V30 2 1 2 3
M  V30 3 1 2 4
M  V30 4 2 4 5
M  V30 5 1 4 6
M  V30 6 1 5 7
M  V30 7 1 5 8
M  V30 8 2 6 9
M  V30 9 2 7 10
M  V30 10 1 7 11
M  V30 11 2 8 12
M  V30 12 1 10 13
M  V30 13 2 11 14
M  V30 14 2 13 15
M  V30 15 1 15 16
M  V30 16 1 16 17
M  V30 17 1 17 18
M  V30 18 1 17 19
M  V30 19 2 18 20
M  V30 20 1 18 21
M  V30 21 2 19 22
M  V30 22 1 19 23
M  V30 23 1 20 24
M  V30 24 2 21 25
M  V30 25 1 22 26
M  V30 26 2 24 27
M  V30 27 1 27 28
M  V30 28 2 28 29
M  V30 29 1 28 30
M  V30 30 1 30 31
M  V30 31 1 31 32
M  V30 32 2 32 33
M  V30 33 1 32 34
M  V30 34 1 33 35
M  V30 35 2 34 36
M  V30 36 1 35 37
M  V30 37 2 35 38
M  V30 38 1 37 39
M  V30 39 1 38 40
M  V30 40 1 9 12
M  V30 41 1 14 15
M  V30 42 1 20 22
M  V30 43 1 25 27
M  V30 44 1 36 38
M  V30 45 1 39 40
M  V30 END BOND
M  V30 END CTAB
M  END
>  <Molecule ChEMBL ID>
CHEMBL3695816

>  <Smiles>
Cc1c(C)n(Cc2ccc(-c3ccccc3C(=O)O)cc2)c2ccc(C(=O)NCc3ccc4c(c3)OCO4)cc12

>  <IC50_nM>
33

>  <Assay Description>
Lanthascreen Competitive Binding Assay: The assay was performed according to manufacturer protocol. A mixture of nM GST-PPARG-LBD, 5 nM Tb-GST-antibody, 5 nM Fluormone Pan-PPAR Green, and serial dilutions of the experimental compound, beginning at 10 ׬M downwards, was added to wells of black 384-well low-volume plates (Greiner) to a total volume of 18 ׬L. All dilutions were made in TR-FRET assay buffer C. DMSO at 2% final concentration was used as a no-ligand control. Experiment was performed in triplicate, and incubated for 2 hours in the dark prior to assay read in Perkin Elmer ViewLux ultra HTS microplate reader. FRET signal was measured by excitation at 340 nm and emission at 520 nm for fluorescein and 490 nm for terbium. Fold change over DMSO was calculated using GraphPad Prism Software (La Jolla, Calif.) by calculating 520 nm/490 nm ratio. Graphs were plotted as fold change of FRET signal for compound treatment over DMSO-only control.

$$$$
CHEMBL181954
Actelion Java MolfileCreator 2.0

  0  0  0  0  0  0              0 V3000
M  V30 BEGIN CTAB
M  V30 COUNTS 31 33 0 0 0
M  V30 BEGIN ATOM
M  V30 1 O 8.6602 -4.5 0.0 0
M  V30 2 C 8.6602 -3.5 0.0 0
M  V30 3 O 9.5262 -3.0 0.0 0
M  V30 4 C 7.7942 -3.0 0.0 0 CFG=1
M  V30 5 O 6.9282 -3.5 0.0 0
M  V30 6 C 7.7942 -2.0 0.0 0
M  V30 7 C 6.9282 -4.5 0.0 0
M  V30 8 C 6.9282 -1.5 0.0 0
M  V30 9 C 6.9282 -0.5 0.0 0
M  V30 10 C 6.0621 -2.0 0.0 0
M  V30 11 C 6.0621 0.0 0.0 0
M  V30 12 C 5.1961 -1.5 0.0 0
M  V30 13 C 5.1961 -0.5 0.0 0
M  V30 14 O 4.3301 0.0 0.0 0
M  V30 15 C 3.4641 -0.5 0.0 0
M  V30 16 C 2.598 0.0 0.0 0
M  V30 17 C 1.732 -0.5 0.0 0
M  V30 18 O 0.866 0.0 0.0 0
M  V30 19 C 0.0 -0.5 0.0 0
M  V30 20 C -0.866 0.0 0.0 0
M  V30 21 C 0.0 -1.4999 0.0 0
M  V30 22 C -1.732 -0.4999 0.0 0
M  V30 23 C -0.866 -1.9999 0.0 0
M  V30 24 C -1.732 -1.4999 0.0 0
M  V30 25 O -2.598 -1.9999 0.0 0
M  V30 26 C -2.598 -2.9999 0.0 0
M  V30 27 C -3.4641 -3.4999 0.0 0
M  V30 28 C -1.732 -3.4999 0.0 0
M  V30 29 C -3.4641 -4.4999 0.0 0
M  V30 30 C -1.732 -4.4999 0.0 0
M  V30 31 C -2.598 -4.9999 0.0 0
M  V30 END ATOM
M  V30 BEGIN BOND
M  V30 1 2 1 2
M  V30 2 1 2 3
M  V30 3 1 2 4
M  V30 4 1 4 5 CFG=1
M  V30 5 1 4 6
M  V30 6 1 5 7
M  V30 7 1 6 8
M  V30 8 2 8 9
M  V30 9 1 8 10
M  V30 10 1 9 11
M  V30 11 2 10 12
M  V30 12 2 11 13
M  V30 13 1 13 14
M  V30 14 1 14 15
M  V30 15 1 15 16
M  V30 16 1 16 17
M  V30 17 1 17 18
M  V30 18 1 18 19
M  V30 19 2 19 20
M  V30 20 1 19 21
M  V30 21 1 20 22
M  V30 22 2 21 23
M  V30 23 2 22 24
M  V30 24 1 24 25
M  V30 25 1 25 26
M  V30 26 2 26 27
M  V30 27 1 26 28
M  V30 28 1 27 29
M  V30 29 2 28 30
M  V30 30 2 29 31
M  V30 31 1 12 13
M  V30 32 1 23 24
M  V30 33 1 30 31
M  V30 END BOND
M  V30 BEGIN COLLECTION
M  V30 MDLV30/STEABS ATOMS=(1 4)
M  V30 END COLLECTION
M  V30 END CTAB
M  END
>  <Molecule ChEMBL ID>
CHEMBL181954

>  <Smiles>
CO[C@@H](Cc1ccc(OCCCOc2ccc(Oc3ccccc3)cc2)cc1)C(=O)O

>  <IC50_nM>
33.96

>  <Assay Description>
Agonist activity at PPARgamma

$$$$
CHEMBL181954
Actelion Java MolfileCreator 2.0

  0  0  0  0  0  0              0 V3000
M  V30 BEGIN CTAB
M  V30 COUNTS 31 33 0 0 0
M  V30 BEGIN ATOM
M  V30 1 O 8.6602 -4.5 0.0 0
M  V30 2 C 8.6602 -3.5 0.0 0
M  V30 3 O 9.5262 -3.0 0.0 0
M  V30 4 C 7.7942 -3.0 0.0 0 CFG=1
M  V30 5 O 6.9282 -3.5 0.0 0
M  V30 6 C 7.7942 -2.0 0.0 0
M  V30 7 C 6.9282 -4.5 0.0 0
M  V30 8 C 6.9282 -1.5 0.0 0
M  V30 9 C 6.9282 -0.5 0.0 0
M  V30 10 C 6.0621 -2.0 0.0 0
M  V30 11 C 6.0621 0.0 0.0 0
M  V30 12 C 5.1961 -1.5 0.0 0
M  V30 13 C 5.1961 -0.5 0.0 0
M  V30 14 O 4.3301 0.0 0.0 0
M  V30 15 C 3.4641 -0.5 0.0 0
M  V30 16 C 2.598 0.0 0.0 0
M  V30 17 C 1.732 -0.5 0.0 0
M  V30 18 O 0.866 0.0 0.0 0
M  V30 19 C 0.0 -0.5 0.0 0
M  V30 20 C -0.866 0.0 0.0 0
M  V30 21 C 0.0 -1.4999 0.0 0
M  V30 22 C -1.732 -0.4999 0.0 0
M  V30 23 C -0.866 -1.9999 0.0 0
M  V30 24 C -1.732 -1.4999 0.0 0
M  V30 25 O -2.598 -1.9999 0.0 0
M  V30 26 C -2.598 -2.9999 0.0 0
M  V30 27 C -3.4641 -3.4999 0.0 0
M  V30 28 C -1.732 -3.4999 0.0 0
M  V30 29 C -3.4641 -4.4999 0.0 0
M  V30 30 C -1.732 -4.4999 0.0 0
M  V30 31 C -2.598 -4.9999 0.0 0
M  V30 END ATOM
M  V30 BEGIN BOND
M  V30 1 2 1 2
M  V30 2 1 2 3
M  V30 3 1 2 4
M  V30 4 1 4 5 CFG=1
M  V30 5 1 4 6
M  V30 6 1 5 7
M  V30 7 1 6 8
M  V30 8 2 8 9
M  V30 9 1 8 10
M  V30 10 1 9 11
M  V30 11 2 10 12
M  V30 12 2 11 13
M  V30 13 1 13 14
M  V30 14 1 14 15
M  V30 15 1 15 16
M  V30 16 1 16 17
M  V30 17 1 17 18
M  V30 18 1 18 19
M  V30 19 2 19 20
M  V30 20 1 19 21
M  V30 21 1 20 22
M  V30 22 2 21 23
M  V30 23 2 22 24
M  V30 24 1 24 25
M  V30 25 1 25 26
M  V30 26 2 26 27
M  V30 27 1 26 28
M  V30 28 1 27 29
M  V30 29 2 28 30
M  V30 30 2 29 31
M  V30 31 1 12 13
M  V30 32 1 23 24
M  V30 33 1 30 31
M  V30 END BOND
M  V30 BEGIN COLLECTION
M  V30 MDLV30/STEABS ATOMS=(1 4)
M  V30 END COLLECTION
M  V30 END CTAB
M  END
>  <Molecule ChEMBL ID>
CHEMBL181954

>  <Smiles>
CO[C@@H](Cc1ccc(OCCCOc2ccc(Oc3ccccc3)cc2)cc1)C(=O)O

>  <IC50_nM>
34

>  <Assay Description>
Mean inhibitory concentration against human peroxisome proliferator-activated receptor gamma

$$$$
CHEMBL491750
Actelion Java MolfileCreator 2.0

  0  0  0  0  0  0              0 V3000
M  V30 BEGIN CTAB
M  V30 COUNTS 36 40 0 0 0
M  V30 BEGIN ATOM
M  V30 1 O 4.8883 3.3109 0.0 0
M  V30 2 C 5.6314 2.6418 0.0 0
M  V30 3 O 6.5825 2.9508 0.0 0
M  V30 4 C 5.4235 1.6636 0.0 0
M  V30 5 C 6.1667 0.9945 0.0 0
M  V30 6 N 7.1448 1.2024 0.0 0
M  V30 7 C 6.0621 0.0 0.0 0
M  V30 8 N 7.6448 0.3364 0.0 0
M  V30 9 N 6.9757 -0.4067 0.0 0
M  V30 10 C 5.1961 -0.5 0.0 0
M  V30 11 C 8.6393 0.2318 0.0 0
M  V30 12 C 4.3301 0.0 0.0 0
M  V30 13 C 5.1961 -1.4999 0.0 0
M  V30 14 C 9.2271 1.0408 0.0 0
M  V30 15 C 9.0461 -0.6816 0.0 0
M  V30 16 C 3.4641 -0.5 0.0 0
M  V30 17 C 4.3301 -1.9999 0.0 0
M  V30 18 C 10.2216 0.9363 0.0 0
M  V30 19 C 10.0406 -0.7861 0.0 0
M  V30 20 O 2.598 0.0 0.0 0
M  V30 21 C 3.4641 -1.4999 0.0 0
M  V30 22 C 10.6284 0.0228 0.0 0
M  V30 23 C 1.732 -0.5 0.0 0
M  V30 24 C 0.866 0.0 0.0 0
M  V30 25 C 0.0 -0.5 0.0 0
M  V30 26 N -0.9135 -0.0932 0.0 0
M  V30 27 C -0.1045 -1.4945 0.0 0
M  V30 28 C -1.5826 -0.8364 0.0 0
M  V30 29 O -1.0826 -1.7024 0.0 0
M  V30 30 C 0.6386 -2.1636 0.0 0
M  V30 31 C -2.5771 -0.7318 0.0 0
M  V30 32 C -2.9839 0.1816 0.0 0
M  V30 33 C -3.1649 -1.5408 0.0 0
M  V30 34 C -3.9784 0.2861 0.0 0
M  V30 35 C -4.1595 -1.4363 0.0 0
M  V30 36 C -4.5662 -0.5228 0.0 0
M  V30 END ATOM
M  V30 BEGIN BOND
M  V30 1 2 1 2
M  V30 2 1 2 3
M  V30 3 1 2 4
M  V30 4 1 4 5
M  V30 5 2 5 6
M  V30 6 1 5 7
M  V30 7 1 6 8
M  V30 8 2 7 9
M  V30 9 1 7 10
M  V30 10 1 8 11
M  V30 11 2 10 12
M  V30 12 1 10 13
M  V30 13 2 11 14
M  V30 14 1 11 15
M  V30 15 1 12 16
M  V30 16 2 13 17
M  V30 17 1 14 18
M  V30 18 2 15 19
M  V30 19 1 16 20
M  V30 20 2 16 21
M  V30 21 2 18 22
M  V30 22 1 20 23
M  V30 23 1 23 24
M  V30 24 1 24 25
M  V30 25 1 25 26
M  V30 26 2 25 27
M  V30 27 2 26 28
M  V30 28 1 27 29
M  V30 29 1 27 30
M  V30 30 1 28 31
M  V30 31 2 31 32
M  V30 32 1 31 33
M  V30 33 1 32 34
M  V30 34 2 33 35
M  V30 35 2 34 36
M  V30 36 1 8 9
M  V30 37 1 17 21
M  V30 38 1 19 22
M  V30 39 1 28 29
M  V30 40 1 35 36
M  V30 END BOND
M  V30 END CTAB
M  END
>  <Molecule ChEMBL ID>
CHEMBL491750

>  <Smiles>
Cc1oc(-c2ccccc2)nc1CCOc1cccc(-c2nn(-c3ccccc3)nc2CC(=O)O)c1

>  <IC50_nM>
34

>  <Assay Description>
Binding affinity to PPARgamma by fluorescence polarization assay

$$$$
CHEMBL3695767
Actelion Java MolfileCreator 2.0

  0  0  0  0  0  0              0 V3000
M  V30 BEGIN CTAB
M  V30 COUNTS 39 43 0 0 0
M  V30 BEGIN ATOM
M  V30 1 O 11.8592 -3.5669 0.0 0
M  V30 2 C 10.8811 -3.7748 0.0 0
M  V30 3 O 10.212 -3.0316 0.0 0
M  V30 4 C 10.5721 -4.7258 0.0 0
M  V30 5 C 9.5939 -4.9337 0.0 0
M  V30 6 C 11.2412 -5.469 0.0 0
M  V30 7 C 8.9248 -4.1906 0.0 0
M  V30 8 C 9.2849 -5.8848 0.0 0
M  V30 9 C 10.9322 -6.42 0.0 0
M  V30 10 C 9.2338 -3.2395 0.0 0
M  V30 11 C 7.9466 -4.3985 0.0 0
M  V30 12 C 9.954 -6.6279 0.0 0
M  V30 13 C 8.5647 -2.4964 0.0 0
M  V30 14 C 7.2775 -3.6554 0.0 0
M  V30 15 C 7.5865 -2.7043 0.0 0
M  V30 16 C 6.9174 -1.9612 0.0 0
M  V30 17 N 5.9392 -2.1691 0.0 0
M  V30 18 C 5.1961 -1.4999 0.0 0
M  V30 19 C 5.5325 -3.0826 0.0 0
M  V30 20 C 4.3301 -1.9999 0.0 0
M  V30 21 C 5.1961 -0.4999 0.0 0
M  V30 22 C 4.538 -2.9781 0.0 0
M  V30 23 C 6.0325 -3.9487 0.0 0
M  V30 24 C 3.4641 -1.5 0.0 0
M  V30 25 C 4.3301 0.0 0.0 0
M  V30 26 C 3.8689 -3.7212 0.0 0
M  V30 27 C 3.4641 -0.5 0.0 0
M  V30 28 C 2.598 0.0 0.0 0
M  V30 29 O 2.598 1.0 0.0 0
M  V30 30 N 1.732 -0.5 0.0 0
M  V30 31 C 0.866 0.0 0.0 0
M  V30 32 C 0.0 -0.5 0.0 0
M  V30 33 C -0.866 0.0 0.0 0
M  V30 34 C 0.0 -1.4999 0.0 0
M  V30 35 C -1.732 -0.4999 0.0 0
M  V30 36 C -0.866 -1.9999 0.0 0
M  V30 37 C -1.732 -1.4999 0.0 0
M  V30 38 N -2.598 -1.9999 0.0 0 CHG=1
M  V30 39 C -3.4641 -2.4999 0.0 0 CHG=-1
M  V30 END ATOM
M  V30 BEGIN BOND
M  V30 1 2 1 2
M  V30 2 1 2 3
M  V30 3 1 2 4
M  V30 4 2 4 5
M  V30 5 1 4 6
M  V30 6 1 5 7
M  V30 7 1 5 8
M  V30 8 2 6 9
M  V30 9 2 7 10
M  V30 10 1 7 11
M  V30 11 2 8 12
M  V30 12 1 10 13
M  V30 13 2 11 14
M  V30 14 2 13 15
M  V30 15 1 15 16
M  V30 16 1 16 17
M  V30 17 1 17 18
M  V30 18 1 17 19
M  V30 19 2 18 20
M  V30 20 1 18 21
M  V30 21 2 19 22
M  V30 22 1 19 23
M  V30 23 1 20 24
M  V30 24 2 21 25
M  V30 25 1 22 26
M  V30 26 2 24 27
M  V30 27 1 27 28
M  V30 28 2 28 29
M  V30 29 1 28 30
M  V30 30 1 30 31
M  V30 31 1 31 32
M  V30 32 2 32 33
M  V30 33 1 32 34
M  V30 34 1 33 35
M  V30 35 2 34 36
M  V30 36 2 35 37
M  V30 37 1 37 38
M  V30 38 3 38 39
M  V30 39 1 9 12
M  V30 40 1 14 15
M  V30 41 1 20 22
M  V30 42 1 25 27
M  V30 43 1 36 37
M  V30 END BOND
M  V30 END CTAB
M  END
>  <Molecule ChEMBL ID>
CHEMBL3695767

>  <Smiles>
[C-]#[N+]c1ccc(CNC(=O)c2ccc3c(c2)c(C)c(C)n3Cc2ccc(-c3ccccc3C(=O)O)cc2)cc1

>  <IC50_nM>
34

>  <Assay Description>
Lanthascreen Competitive Binding Assay: The assay was performed according to manufacturer protocol. A mixture of nM GST-PPARG-LBD, 5 nM Tb-GST-antibody, 5 nM Fluormone Pan-PPAR Green, and serial dilutions of the experimental compound, beginning at 10 ׬M downwards, was added to wells of black 384-well low-volume plates (Greiner) to a total volume of 18 ׬L. All dilutions were made in TR-FRET assay buffer C. DMSO at 2% final concentration was used as a no-ligand control. Experiment was performed in triplicate, and incubated for 2 hours in the dark prior to assay read in Perkin Elmer ViewLux ultra HTS microplate reader. FRET signal was measured by excitation at 340 nm and emission at 520 nm for fluorescein and 490 nm for terbium. Fold change over DMSO was calculated using GraphPad Prism Software (La Jolla, Calif.) by calculating 520 nm/490 nm ratio. Graphs were plotted as fold change of FRET signal for compound treatment over DMSO-only control.

$$$$
CHEMBL2338482
Actelion Java MolfileCreator 2.0

  0  0  0  0  0  0              0 V3000
M  V30 BEGIN CTAB
M  V30 COUNTS 30 32 0 0 0
M  V30 BEGIN ATOM
M  V30 1 Cl 7.7942 -0.75 0.0 0
M  V30 2 C 6.4951 0.0 0.0 0
M  V30 3 C 6.4951 1.5 0.0 0
M  V30 4 C 5.1961 -0.75 0.0 0
M  V30 5 O 7.7942 2.25 0.0 0
M  V30 6 C 5.1961 2.25 0.0 0
M  V30 7 C 3.8971 0.0 0.0 0
M  V30 8 C 7.7942 3.75 0.0 0
M  V30 9 Cl 5.1961 3.75 0.0 0
M  V30 10 C 3.8971 1.5 0.0 0
M  V30 11 N 2.598 -0.75 0.0 0
M  V30 12 C 9.0932 4.5 0.0 0
M  V30 13 C 6.4951 4.5 0.0 0
M  V30 14 S 1.299 0.0 0.0 0
M  V30 15 N 9.0932 6.0 0.0 0
M  V30 16 C 6.4951 6.0 0.0 0
M  V30 17 O 2.049 1.299 0.0 0
M  V30 18 O 0.549 1.299 0.0 0
M  V30 19 C 0.0 -0.75 0.0 0
M  V30 20 C 7.7942 6.75 0.0 0
M  V30 21 C 5.1961 6.75 0.0 0
M  V30 22 C -1.299 0.0 0.0 0
M  V30 23 C 0.0 -2.25 0.0 0
M  V30 24 O 5.1961 8.25 0.0 0
M  V30 25 C 3.8971 6.0 0.0 0
M  V30 26 Cl -1.299 1.5 0.0 0
M  V30 27 C -2.598 -0.75 0.0 0
M  V30 28 C -1.299 -3.0 0.0 0
M  V30 29 C -2.598 -2.25 0.0 0
M  V30 30 Cl -3.8971 -3.0 0.0 0
M  V30 END ATOM
M  V30 BEGIN BOND
M  V30 1 1 1 2
M  V30 2 2 2 3
M  V30 3 1 2 4
M  V30 4 1 3 5
M  V30 5 1 3 6
M  V30 6 2 4 7
M  V30 7 1 5 8
M  V30 8 1 6 9
M  V30 9 2 6 10
M  V30 10 1 7 11
M  V30 11 2 8 12
M  V30 12 1 8 13
M  V30 13 1 11 14
M  V30 14 1 12 15
M  V30 15 2 13 16
M  V30 16 2 14 17
M  V30 17 2 14 18
M  V30 18 1 14 19
M  V30 19 2 15 20
M  V30 20 1 16 21
M  V30 21 2 19 22
M  V30 22 1 19 23
M  V30 23 2 21 24
M  V30 24 1 21 25
M  V30 25 1 22 26
M  V30 26 1 22 27
M  V30 27 2 23 28
M  V30 28 2 27 29
M  V30 29 1 29 30
M  V30 30 1 7 10
M  V30 31 1 16 20
M  V30 32 1 28 29
M  V30 END BOND
M  V30 END CTAB
M  END
>  <Molecule ChEMBL ID>
CHEMBL2338482

>  <Smiles>
CC(=O)c1cncc(Oc2c(Cl)cc(NS(=O)(=O)c3ccc(Cl)cc3Cl)cc2Cl)c1

>  <IC50_nM>
34

>  <Assay Description>
Displacement of [3H]-rosiglitazone from GST-tagged PPARgammaLBD (unknown origin) after 1 hr by scintillation proximity assay

$$$$
CHEMBL4568299
Actelion Java MolfileCreator 2.0

  0  0  0  0  0  0              0 V3000
M  V30 BEGIN CTAB
M  V30 COUNTS 37 41 0 0 0
M  V30 BEGIN ATOM
M  V30 1 O 11.8592 -3.5669 0.0 0
M  V30 2 C 10.8811 -3.7748 0.0 0
M  V30 3 O 10.212 -3.0316 0.0 0
M  V30 4 C 10.5721 -4.7258 0.0 0
M  V30 5 C 9.5939 -4.9337 0.0 0
M  V30 6 C 11.2412 -5.469 0.0 0
M  V30 7 C 8.9248 -4.1906 0.0 0
M  V30 8 C 9.2849 -5.8848 0.0 0
M  V30 9 C 10.9322 -6.42 0.0 0
M  V30 10 C 9.2338 -3.2395 0.0 0
M  V30 11 C 7.9466 -4.3985 0.0 0
M  V30 12 C 9.954 -6.6279 0.0 0
M  V30 13 C 8.5647 -2.4964 0.0 0
M  V30 14 C 7.2775 -3.6554 0.0 0
M  V30 15 C 7.5865 -2.7043 0.0 0
M  V30 16 C 6.9174 -1.9612 0.0 0
M  V30 17 N 5.9392 -2.1691 0.0 0
M  V30 18 C 5.1961 -1.4999 0.0 0
M  V30 19 C 5.5325 -3.0826 0.0 0
M  V30 20 C 4.3301 -1.9999 0.0 0
M  V30 21 C 5.1961 -0.4999 0.0 0
M  V30 22 C 4.538 -2.9781 0.0 0
M  V30 23 C 6.0325 -3.9487 0.0 0
M  V30 24 C 3.4641 -1.5 0.0 0
M  V30 25 C 4.3301 0.0 0.0 0
M  V30 26 C 3.8689 -3.7212 0.0 0
M  V30 27 C 3.4641 -0.5 0.0 0
M  V30 28 C 2.598 0.0 0.0 0
M  V30 29 O 2.598 1.0 0.0 0
M  V30 30 N 1.732 -0.5 0.0 0
M  V30 31 C 0.866 0.0 0.0 0
M  V30 32 C 0.0 -0.5 0.0 0
M  V30 33 N -0.866 0.0 0.0 0
M  V30 34 C 0.0 -1.4999 0.0 0
M  V30 35 C -1.732 -0.4999 0.0 0
M  V30 36 C -0.866 -1.9999 0.0 0
M  V30 37 C -1.732 -1.4999 0.0 0
M  V30 END ATOM
M  V30 BEGIN BOND
M  V30 1 2 1 2
M  V30 2 1 2 3
M  V30 3 1 2 4
M  V30 4 2 4 5
M  V30 5 1 4 6
M  V30 6 1 5 7
M  V30 7 1 5 8
M  V30 8 2 6 9
M  V30 9 2 7 10
M  V30 10 1 7 11
M  V30 11 2 8 12
M  V30 12 1 10 13
M  V30 13 2 11 14
M  V30 14 2 13 15
M  V30 15 1 15 16
M  V30 16 1 16 17
M  V30 17 1 17 18
M  V30 18 1 17 19
M  V30 19 2 18 20
M  V30 20 1 18 21
M  V30 21 2 19 22
M  V30 22 1 19 23
M  V30 23 1 20 24
M  V30 24 2 21 25
M  V30 25 1 22 26
M  V30 26 2 24 27
M  V30 27 1 27 28
M  V30 28 2 28 29
M  V30 29 1 28 30
M  V30 30 1 30 31
M  V30 31 1 31 32
M  V30 32 2 32 33
M  V30 33 1 32 34
M  V30 34 1 33 35
M  V30 35 2 34 36
M  V30 36 2 35 37
M  V30 37 1 9 12
M  V30 38 1 14 15
M  V30 39 1 20 22
M  V30 40 1 25 27
M  V30 41 1 36 37
M  V30 END BOND
M  V30 END CTAB
M  END
>  <Molecule ChEMBL ID>
CHEMBL4568299

>  <Smiles>
Cc1c(C)n(Cc2ccc(-c3ccccc3C(=O)O)cc2)c2ccc(C(=O)NCc3ccccn3)cc12

>  <IC50_nM>
34

>  <Assay Description>
Displacement of fluormone PPAR green tracer ligand from recombinant GST-tagged PPARgamma ligand binding domain (unknown origin) incubated for 4 hrs by competitive fluorescence polarization binding assay

$$$$
CHEMBL3699347
Actelion Java MolfileCreator 2.0

  0  0  0  0  0  0              0 V3000
M  V30 BEGIN CTAB
M  V30 COUNTS 42 46 0 0 0
M  V30 BEGIN ATOM
M  V30 1 O 11.8592 -3.5669 0.0 0
M  V30 2 C 10.8811 -3.7748 0.0 0
M  V30 3 O 10.212 -3.0316 0.0 0
M  V30 4 C 10.5721 -4.7258 0.0 0
M  V30 5 C 9.5939 -4.9337 0.0 0
M  V30 6 C 11.2412 -5.469 0.0 0
M  V30 7 C 8.9248 -4.1906 0.0 0
M  V30 8 C 9.2849 -5.8848 0.0 0
M  V30 9 C 10.9322 -6.42 0.0 0
M  V30 10 C 9.2338 -3.2395 0.0 0
M  V30 11 C 7.9466 -4.3985 0.0 0
M  V30 12 C 9.954 -6.6279 0.0 0
M  V30 13 C 8.5647 -2.4964 0.0 0
M  V30 14 C 7.2775 -3.6554 0.0 0
M  V30 15 C 7.5865 -2.7043 0.0 0
M  V30 16 C 6.9174 -1.9612 0.0 0
M  V30 17 N 5.9392 -2.1691 0.0 0
M  V30 18 C 5.1961 -1.4999 0.0 0
M  V30 19 C 5.5325 -3.0826 0.0 0
M  V30 20 C 4.3301 -1.9999 0.0 0
M  V30 21 C 5.1961 -0.4999 0.0 0
M  V30 22 C 4.538 -2.9781 0.0 0
M  V30 23 C 6.0325 -3.9487 0.0 0
M  V30 24 C 3.4641 -1.5 0.0 0
M  V30 25 C 4.3301 0.0 0.0 0
M  V30 26 C 3.8689 -3.7212 0.0 0
M  V30 27 C 3.4641 -0.5 0.0 0
M  V30 28 C 2.598 0.0 0.0 0
M  V30 29 O 2.598 1.0 0.0 0
M  V30 30 N 1.732 -0.5 0.0 0
M  V30 31 C 0.866 0.0 0.0 0 CFG=2
M  V30 32 C 0.866 1.0 0.0 0
M  V30 33 C 0.0 -0.5 0.0 0
M  V30 34 C 1.732 1.5 0.0 0
M  V30 35 C 0.0 1.4999 0.0 0
M  V30 36 C 1.732 2.5 0.0 0
M  V30 37 C 0.0 2.4999 0.0 0
M  V30 38 C 0.866 3.0 0.0 0
M  V30 39 O 0.866 3.9999 0.0 0
M  V30 40 C 1.732 4.5 0.0 0
M  V30 41 C 2.598 4.0 0.0 0
M  V30 42 C 1.732 5.5 0.0 0
M  V30 END ATOM
M  V30 BEGIN BOND
M  V30 1 2 1 2
M  V30 2 1 2 3
M  V30 3 1 2 4
M  V30 4 2 4 5
M  V30 5 1 4 6
M  V30 6 1 5 7
M  V30 7 1 5 8
M  V30 8 2 6 9
M  V30 9 2 7 10
M  V30 10 1 7 11
M  V30 11 2 8 12
M  V30 12 1 10 13
M  V30 13 2 11 14
M  V30 14 2 13 15
M  V30 15 1 15 16
M  V30 16 1 16 17
M  V30 17 1 17 18
M  V30 18 1 17 19
M  V30 19 2 18 20
M  V30 20 1 18 21
M  V30 21 2 19 22
M  V30 22 1 19 23
M  V30 23 1 20 24
M  V30 24 2 21 25
M  V30 25 1 22 26
M  V30 26 2 24 27
M  V30 27 1 27 28
M  V30 28 2 28 29
M  V30 29 1 28 30
M  V30 30 1 30 31
M  V30 31 1 31 32
M  V30 32 1 31 33 CFG=1
M  V30 33 2 32 34
M  V30 34 1 32 35
M  V30 35 1 34 36
M  V30 36 2 35 37
M  V30 37 2 36 38
M  V30 38 1 38 39
M  V30 39 1 39 40
M  V30 40 1 40 41
M  V30 41 1 40 42
M  V30 42 1 9 12
M  V30 43 1 14 15
M  V30 44 1 20 22
M  V30 45 1 25 27
M  V30 46 1 37 38
M  V30 END BOND
M  V30 BEGIN COLLECTION
M  V30 MDLV30/STEABS ATOMS=(1 31)
M  V30 END COLLECTION
M  V30 END CTAB
M  END
>  <Molecule ChEMBL ID>
CHEMBL3699347

>  <Smiles>
Cc1c(C)n(Cc2ccc(-c3ccccc3C(=O)O)cc2)c2ccc(C(=O)N[C@@H](C)c3ccc(OC(C)C)cc3)cc12

>  <IC50_nM>
34

>  <Assay Description>
Lanthascreen Competitive Binding Assay: The assay was performed according to manufacturer protocol. A mixture of nM GST-PPARG-LBD, 5 nM Tb-GST-antibody, 5 nM Fluormone Pan-PPAR Green, and serial dilutions of the experimental compound, beginning at 10 ׬M downwards, was added to wells of black 384-well low-volume plates (Greiner) to a total volume of 18 ׬L. All dilutions were made in TR-FRET assay buffer C. DMSO at 2% final concentration was used as a no-ligand control. Experiment was performed in triplicate, and incubated for 2 hours in the dark prior to assay read in Perkin Elmer ViewLux ultra HTS microplate reader. FRET signal was measured by excitation at 340 nm and emission at 520 nm for fluorescein and 490 nm for terbium. Fold change over DMSO was calculated using GraphPad Prism Software (La Jolla, Calif.) by calculating 520 nm/490 nm ratio. Graphs were plotted as fold change of FRET signal for compound treatment over DMSO-only control.

$$$$
CHEMBL241479
Actelion Java MolfileCreator 2.0

  0  0  0  0  0  0              0 V3000
M  V30 BEGIN CTAB
M  V30 COUNTS 33 35 0 0 0
M  V30 BEGIN ATOM
M  V30 1 O 8.6602 -4.5 0.0 0
M  V30 2 C 8.6602 -3.5 0.0 0
M  V30 3 O 9.5262 -3.0 0.0 0
M  V30 4 C 7.7942 -3.0 0.0 0
M  V30 5 C 7.7942 -2.0 0.0 0
M  V30 6 C 6.9282 -1.5 0.0 0
M  V30 7 C 6.9282 -0.5 0.0 0
M  V30 8 C 6.0621 -2.0 0.0 0
M  V30 9 C 6.0621 0.0 0.0 0
M  V30 10 C 7.7942 0.0 0.0 0
M  V30 11 C 5.1961 -1.5 0.0 0
M  V30 12 C 5.1961 -0.5 0.0 0
M  V30 13 C 7.7942 0.9999 0.0 0
M  V30 14 O 4.3301 0.0 0.0 0
M  V30 15 C 3.4641 -0.5 0.0 0
M  V30 16 C 2.598 0.0 0.0 0
M  V30 17 C 1.732 -0.5 0.0 0 CFG=2
M  V30 18 O 0.866 0.0 0.0 0
M  V30 19 C 1.732 -1.5 0.0 0
M  V30 20 C 0.0 -0.5 0.0 0
M  V30 21 C -0.866 0.0 0.0 0
M  V30 22 C 0.0 -1.4999 0.0 0
M  V30 23 C -0.866 1.0 0.0 0
M  V30 24 C -1.732 -0.4999 0.0 0
M  V30 25 C -0.866 -1.9999 0.0 0
M  V30 26 N 0.0 1.4999 0.0 0
M  V30 27 C -1.732 1.5 0.0 0
M  V30 28 C -1.732 -1.4999 0.0 0
M  V30 29 C 0.0 2.4999 0.0 0
M  V30 30 C -1.732 2.5 0.0 0
M  V30 31 C -2.598 -1.9999 0.0 0
M  V30 32 C -0.866 3.0 0.0 0
M  V30 33 C -2.598 -2.9999 0.0 0
M  V30 END ATOM
M  V30 BEGIN BOND
M  V30 1 2 1 2
M  V30 2 1 2 3
M  V30 3 1 2 4
M  V30 4 1 4 5
M  V30 5 1 5 6
M  V30 6 2 6 7
M  V30 7 1 6 8
M  V30 8 1 7 9
M  V30 9 1 7 10
M  V30 10 2 8 11
M  V30 11 2 9 12
M  V30 12 1 10 13
M  V30 13 1 12 14
M  V30 14 1 14 15
M  V30 15 1 15 16
M  V30 16 1 16 17
M  V30 17 1 17 18
M  V30 18 1 17 19 CFG=1
M  V30 19 1 18 20
M  V30 20 2 20 21
M  V30 21 1 20 22
M  V30 22 1 21 23
M  V30 23 1 21 24
M  V30 24 2 22 25
M  V30 25 2 23 26
M  V30 26 1 23 27
M  V30 27 2 24 28
M  V30 28 1 26 29
M  V30 29 2 27 30
M  V30 30 1 28 31
M  V30 31 2 29 32
M  V30 32 1 31 33
M  V30 33 1 11 12
M  V30 34 1 25 28
M  V30 35 1 30 32
M  V30 END BOND
M  V30 BEGIN COLLECTION
M  V30 MDLV30/STEABS ATOMS=(1 17)
M  V30 END COLLECTION
M  V30 END CTAB
M  END
>  <Molecule ChEMBL ID>
CHEMBL241479

>  <Smiles>
CCc1ccc(O[C@H](C)CCOc2ccc(CCC(=O)O)c(CC)c2)c(-c2ccccn2)c1

>  <IC50_nM>
34.99

>  <Assay Description>
Agonist activity at PPARgamma

$$$$
CHEMBL241479
Actelion Java MolfileCreator 2.0

  0  0  0  0  0  0              0 V3000
M  V30 BEGIN CTAB
M  V30 COUNTS 33 35 0 0 0
M  V30 BEGIN ATOM
M  V30 1 O 8.6602 -4.5 0.0 0
M  V30 2 C 8.6602 -3.5 0.0 0
M  V30 3 O 9.5262 -3.0 0.0 0
M  V30 4 C 7.7942 -3.0 0.0 0
M  V30 5 C 7.7942 -2.0 0.0 0
M  V30 6 C 6.9282 -1.5 0.0 0
M  V30 7 C 6.9282 -0.5 0.0 0
M  V30 8 C 6.0621 -2.0 0.0 0
M  V30 9 C 6.0621 0.0 0.0 0
M  V30 10 C 7.7942 0.0 0.0 0
M  V30 11 C 5.1961 -1.5 0.0 0
M  V30 12 C 5.1961 -0.5 0.0 0
M  V30 13 C 7.7942 0.9999 0.0 0
M  V30 14 O 4.3301 0.0 0.0 0
M  V30 15 C 3.4641 -0.5 0.0 0
M  V30 16 C 2.598 0.0 0.0 0
M  V30 17 C 1.732 -0.5 0.0 0 CFG=2
M  V30 18 O 0.866 0.0 0.0 0
M  V30 19 C 1.732 -1.5 0.0 0
M  V30 20 C 0.0 -0.5 0.0 0
M  V30 21 C -0.866 0.0 0.0 0
M  V30 22 C 0.0 -1.4999 0.0 0
M  V30 23 C -0.866 1.0 0.0 0
M  V30 24 C -1.732 -0.4999 0.0 0
M  V30 25 C -0.866 -1.9999 0.0 0
M  V30 26 N 0.0 1.4999 0.0 0
M  V30 27 C -1.732 1.5 0.0 0
M  V30 28 C -1.732 -1.4999 0.0 0
M  V30 29 C 0.0 2.4999 0.0 0
M  V30 30 C -1.732 2.5 0.0 0
M  V30 31 C -2.598 -1.9999 0.0 0
M  V30 32 C -0.866 3.0 0.0 0
M  V30 33 C -2.598 -2.9999 0.0 0
M  V30 END ATOM
M  V30 BEGIN BOND
M  V30 1 2 1 2
M  V30 2 1 2 3
M  V30 3 1 2 4
M  V30 4 1 4 5
M  V30 5 1 5 6
M  V30 6 2 6 7
M  V30 7 1 6 8
M  V30 8 1 7 9
M  V30 9 1 7 10
M  V30 10 2 8 11
M  V30 11 2 9 12
M  V30 12 1 10 13
M  V30 13 1 12 14
M  V30 14 1 14 15
M  V30 15 1 15 16
M  V30 16 1 16 17
M  V30 17 1 17 18
M  V30 18 1 17 19 CFG=1
M  V30 19 1 18 20
M  V30 20 2 20 21
M  V30 21 1 20 22
M  V30 22 1 21 23
M  V30 23 1 21 24
M  V30 24 2 22 25
M  V30 25 2 23 26
M  V30 26 1 23 27
M  V30 27 2 24 28
M  V30 28 1 26 29
M  V30 29 2 27 30
M  V30 30 1 28 31
M  V30 31 2 29 32
M  V30 32 1 31 33
M  V30 33 1 11 12
M  V30 34 1 25 28
M  V30 35 1 30 32
M  V30 END BOND
M  V30 BEGIN COLLECTION
M  V30 MDLV30/STEABS ATOMS=(1 17)
M  V30 END COLLECTION
M  V30 END CTAB
M  END
>  <Molecule ChEMBL ID>
CHEMBL241479

>  <Smiles>
CCc1ccc(O[C@H](C)CCOc2ccc(CCC(=O)O)c(CC)c2)c(-c2ccccn2)c1

>  <IC50_nM>
35

>  <Assay Description>
Displacement of [3H]2-methyl-2-(4-{3-[porpyl-(5-pyridin-2yl-thiophene-2-sulfonyl)-amino]-propyl}-phenoxy)-propionic acid from human PPARgamma

$$$$
CHEMBL238152
Actelion Java MolfileCreator 2.0

  0  0  0  0  0  0              0 V3000
M  V30 BEGIN CTAB
M  V30 COUNTS 35 38 0 0 0
M  V30 BEGIN ATOM
M  V30 1 Cl 9.8201 -5.1517 0.0 0
M  V30 2 C 9.0701 -3.8526 0.0 0
M  V30 3 C 7.5701 -3.8526 0.0 0
M  V30 4 C 9.8201 -2.5536 0.0 0
M  V30 5 C 6.8201 -2.5536 0.0 0
M  V30 6 C 9.0701 -1.2546 0.0 0
M  V30 7 C 7.5701 -1.2546 0.0 0
M  V30 8 C 5.3529 -2.2417 0.0 0
M  V30 9 N 6.5664 -0.1398 0.0 0
M  V30 10 C 5.1961 -0.75 0.0 0
M  V30 11 C 4.2382 -3.2454 0.0 0
M  V30 12 C 6.8783 1.3273 0.0 0
M  V30 13 C 3.8971 0.0 0.0 0
M  V30 14 O 3.8971 1.5 0.0 0
M  V30 15 N 2.598 -0.75 0.0 0
M  V30 16 C 1.299 0.0 0.0 0
M  V30 17 C 0.0 -0.75 0.0 0
M  V30 18 C -1.299 0.0 0.0 0
M  V30 19 C 0.0 -2.25 0.0 0
M  V30 20 C -2.598 -0.7499 0.0 0
M  V30 21 C -1.299 -2.9999 0.0 0
M  V30 22 O -3.8971 0.0 0.0 0
M  V30 23 C -2.598 -2.2499 0.0 0
M  V30 24 C -5.1961 -0.7499 0.0 0
M  V30 25 C -6.4951 0.0 0.0 0
M  V30 26 C -5.1961 -2.2499 0.0 0
M  V30 27 C -7.7942 -0.7499 0.0 0
M  V30 28 C -6.4951 -2.9999 0.0 0
M  V30 29 C -7.7942 -2.2499 0.0 0
M  V30 30 C -9.0932 0.0 0.0 0
M  V30 31 C -9.0932 -2.9999 0.0 0
M  V30 32 C -9.0932 -4.4999 0.0 0
M  V30 33 C -10.3923 -5.2499 0.0 0
M  V30 34 O -11.6913 -4.4999 0.0 0
M  V30 35 O -10.3923 -6.7499 0.0 0
M  V30 END ATOM
M  V30 BEGIN BOND
M  V30 1 1 1 2
M  V30 2 2 2 3
M  V30 3 1 2 4
M  V30 4 1 3 5
M  V30 5 2 4 6
M  V30 6 2 5 7
M  V30 7 1 5 8
M  V30 8 1 7 9
M  V30 9 2 8 10
M  V30 10 1 8 11
M  V30 11 1 9 12
M  V30 12 1 10 13
M  V30 13 2 13 14
M  V30 14 1 13 15
M  V30 15 1 15 16
M  V30 16 1 16 17
M  V30 17 2 17 18
M  V30 18 1 17 19
M  V30 19 1 18 20
M  V30 20 2 19 21
M  V30 21 1 20 22
M  V30 22 2 20 23
M  V30 23 1 22 24
M  V30 24 2 24 25
M  V30 25 1 24 26
M  V30 26 1 25 27
M  V30 27 2 26 28
M  V30 28 2 27 29
M  V30 29 1 27 30
M  V30 30 1 29 31
M  V30 31 1 31 32
M  V30 32 1 32 33
M  V30 33 2 33 34
M  V30 34 1 33 35
M  V30 35 1 6 7
M  V30 36 1 9 10
M  V30 37 1 21 23
M  V30 38 1 28 29
M  V30 END BOND
M  V30 END CTAB
M  END
>  <Molecule ChEMBL ID>
CHEMBL238152

>  <Smiles>
Cc1cc(Oc2cccc(CNC(=O)c3c(C)c4cc(Cl)ccc4n3C)c2)ccc1CCC(=O)O

>  <IC50_nM>
35

>  <Assay Description>
Displacement of [3H]2-methyl-2-(4-{3-{propyl-(5-pyridin-2-yl-thiophene-2-sulfonyl)-amino}-propyl}-phenoxy)-propionic acid from human PPARgamma

$$$$
CHEMBL2331775
Actelion Java MolfileCreator 2.0

  0  0  0  0  0  0              0 V3000
M  V30 BEGIN CTAB
M  V30 COUNTS 31 33 0 0 0
M  V30 BEGIN ATOM
M  V30 1 Cl 15.5884 -0.75 0.0 0
M  V30 2 C 14.2894 0.0 0.0 0
M  V30 3 C 14.2894 1.5 0.0 0
M  V30 4 C 12.9903 -0.75 0.0 0
M  V30 5 Cl 15.5884 2.25 0.0 0
M  V30 6 C 12.9903 2.25 0.0 0
M  V30 7 C 11.6913 0.0 0.0 0
M  V30 8 C 11.6913 1.5 0.0 0
M  V30 9 S 10.3923 -0.75 0.0 0
M  V30 10 O 9.6423 -2.049 0.0 0
M  V30 11 O 11.1423 -2.049 0.0 0
M  V30 12 N 9.0932 0.0 0.0 0
M  V30 13 C 7.7942 -0.75 0.0 0
M  V30 14 C 6.4951 0.0 0.0 0
M  V30 15 C 7.7942 -2.25 0.0 0
M  V30 16 C 5.1961 -0.75 0.0 0
M  V30 17 C 6.4951 -3.0 0.0 0
M  V30 18 C 5.1961 -2.25 0.0 0
M  V30 19 C 3.8971 0.0 0.0 0
M  V30 20 O 3.8971 -3.0 0.0 0
M  V30 21 O 3.8971 1.5 0.0 0
M  V30 22 N 2.598 -0.75 0.0 0
M  V30 23 C 3.8971 -4.5 0.0 0
M  V30 24 C 1.299 0.0 0.0 0
M  V30 25 C 2.598 -5.25 0.0 0
M  V30 26 C 5.1961 -5.25 0.0 0
M  V30 27 C 0.0 -0.75 0.0 0
M  V30 28 N 2.598 -6.75 0.0 0
M  V30 29 C 5.1961 -6.75 0.0 0
M  V30 30 C 3.8971 -7.5 0.0 0
M  V30 31 Cl 6.4951 -7.5 0.0 0
M  V30 END ATOM
M  V30 BEGIN BOND
M  V30 1 1 1 2
M  V30 2 2 2 3
M  V30 3 1 2 4
M  V30 4 1 3 5
M  V30 5 1 3 6
M  V30 6 2 4 7
M  V30 7 2 6 8
M  V30 8 1 7 9
M  V30 9 2 9 10
M  V30 10 2 9 11
M  V30 11 1 9 12
M  V30 12 1 12 13
M  V30 13 2 13 14
M  V30 14 1 13 15
M  V30 15 1 14 16
M  V30 16 2 15 17
M  V30 17 2 16 18
M  V30 18 1 16 19
M  V30 19 1 18 20
M  V30 20 2 19 21
M  V30 21 1 19 22
M  V30 22 1 20 23
M  V30 23 1 22 24
M  V30 24 2 23 25
M  V30 25 1 23 26
M  V30 26 1 24 27
M  V30 27 1 25 28
M  V30 28 2 26 29
M  V30 29 2 28 30
M  V30 30 1 29 31
M  V30 31 1 7 8
M  V30 32 1 17 18
M  V30 33 1 29 30
M  V30 END BOND
M  V30 END CTAB
M  END
>  <Molecule ChEMBL ID>
CHEMBL2331775

>  <Smiles>
CCNC(=O)c1cc(NS(=O)(=O)c2ccc(Cl)c(Cl)c2)ccc1Oc1cncc(Cl)c1

>  <IC50_nM>
35

>  <Assay Description>
Displacement of [3H]-rosiglitazone from GST-tagged PPARgammaLBD (unknown origin) after 1 hr by scintillation proximity assay

$$$$
CHEMBL3699348
Actelion Java MolfileCreator 2.0

  0  0  0  0  0  0              0 V3000
M  V30 BEGIN CTAB
M  V30 COUNTS 48 53 0 0 0
M  V30 BEGIN ATOM
M  V30 1 O 6.9282 -1.4999 0.0 0
M  V30 2 C 6.0621 -2.0 0.0 0
M  V30 3 O 6.0621 -3.0 0.0 0
M  V30 4 N 5.1961 -1.4999 0.0 0
M  V30 5 C 5.1961 -3.4999 0.0 0
M  V30 6 C 5.1961 -0.5 0.0 0
M  V30 7 C 4.3301 -1.9999 0.0 0
M  V30 8 C 5.1961 -4.5 0.0 0
M  V30 9 C 4.3301 0.0 0.0 0
M  V30 10 C 3.4641 -1.5 0.0 0
M  V30 11 C 4.3301 -4.9999 0.0 0
M  V30 12 C 6.0621 -5.0 0.0 0
M  V30 13 C 3.4641 -0.5 0.0 0
M  V30 14 C 4.3301 -5.9999 0.0 0
M  V30 15 C 6.0621 -6.0 0.0 0
M  V30 16 C 2.598 0.0 0.0 0 CFG=1
M  V30 17 C 5.1961 -6.5 0.0 0
M  V30 18 N 1.732 -0.5 0.0 0
M  V30 19 C 2.598 1.0 0.0 0
M  V30 20 C 0.866 0.0 0.0 0
M  V30 21 O 0.866 1.0 0.0 0
M  V30 22 C 0.0 -0.5 0.0 0
M  V30 23 C 0.0 -1.4999 0.0 0
M  V30 24 C -0.866 0.0 0.0 0
M  V30 25 C -0.866 -1.9999 0.0 0
M  V30 26 C -1.732 -0.4999 0.0 0
M  V30 27 C -1.732 -1.4999 0.0 0
M  V30 28 C -1.0739 -2.9781 0.0 0
M  V30 29 N -2.4751 -2.1691 0.0 0
M  V30 30 C -2.0684 -3.0826 0.0 0
M  V30 31 C -0.4048 -3.7212 0.0 0
M  V30 32 C -3.4533 -1.9612 0.0 0
M  V30 33 C -2.5684 -3.9487 0.0 0
M  V30 34 C -4.1224 -2.7043 0.0 0
M  V30 35 C -5.1006 -2.4964 0.0 0
M  V30 36 C -3.8134 -3.6554 0.0 0
M  V30 37 C -5.7697 -3.2395 0.0 0
M  V30 38 C -4.4825 -4.3985 0.0 0
M  V30 39 C -5.4607 -4.1906 0.0 0
M  V30 40 C -6.1298 -4.9337 0.0 0
M  V30 41 C -7.108 -4.7258 0.0 0
M  V30 42 C -5.8208 -5.8848 0.0 0
M  V30 43 C -7.417 -3.7748 0.0 0
M  V30 44 C -7.7771 -5.469 0.0 0
M  V30 45 C -6.4899 -6.6279 0.0 0
M  V30 46 O -6.7478 -3.0316 0.0 0
M  V30 47 O -8.3951 -3.5669 0.0 0
M  V30 48 C -7.4681 -6.42 0.0 0
M  V30 END ATOM
M  V30 BEGIN BOND
M  V30 1 2 1 2
M  V30 2 1 2 3
M  V30 3 1 2 4
M  V30 4 1 3 5
M  V30 5 1 4 6
M  V30 6 1 4 7
M  V30 7 1 5 8
M  V30 8 1 6 9
M  V30 9 1 7 10
M  V30 10 2 8 11
M  V30 11 1 8 12
M  V30 12 1 9 13
M  V30 13 1 11 14
M  V30 14 2 12 15
M  V30 15 1 13 16
M  V30 16 2 14 17
M  V30 17 1 16 18
M  V30 18 1 16 19 CFG=1
M  V30 19 1 18 20
M  V30 20 2 20 21
M  V30 21 1 20 22
M  V30 22 2 22 23
M  V30 23 1 22 24
M  V30 24 1 23 25
M  V30 25 2 24 26
M  V30 26 2 25 27
M  V30 27 1 25 28
M  V30 28 1 27 29
M  V30 29 2 28 30
M  V30 30 1 28 31
M  V30 31 1 29 32
M  V30 32 1 30 33
M  V30 33 1 32 34
M  V30 34 2 34 35
M  V30 35 1 34 36
M  V30 36 1 35 37
M  V30 37 2 36 38
M  V30 38 2 37 39
M  V30 39 1 39 40
M  V30 40 2 40 41
M  V30 41 1 40 42
M  V30 42 1 41 43
M  V30 43 1 41 44
M  V30 44 2 42 45
M  V30 45 2 43 46
M  V30 46 1 43 47
M  V30 47 2 44 48
M  V30 48 1 10 13
M  V30 49 1 15 17
M  V30 50 1 26 27
M  V30 51 1 29 30
M  V30 52 1 38 39
M  V30 53 1 45 48
M  V30 END BOND
M  V30 BEGIN COLLECTION
M  V30 MDLV30/STEABS ATOMS=(1 16)
M  V30 END COLLECTION
M  V30 END CTAB
M  END
>  <Molecule ChEMBL ID>
CHEMBL3699348

>  <Smiles>
Cc1c(C)n(Cc2ccc(-c3ccccc3C(=O)O)cc2)c2ccc(C(=O)N[C@@H](C)C3CCN(C(=O)OCc4ccccc4)CC3)cc12

>  <IC50_nM>
35

>  <Assay Description>
Lanthascreen Competitive Binding Assay: The assay was performed according to manufacturer protocol. A mixture of nM GST-PPARG-LBD, 5 nM Tb-GST-antibody, 5 nM Fluormone Pan-PPAR Green, and serial dilutions of the experimental compound, beginning at 10 ׬M downwards, was added to wells of black 384-well low-volume plates (Greiner) to a total volume of 18 ׬L. All dilutions were made in TR-FRET assay buffer C. DMSO at 2% final concentration was used as a no-ligand control. Experiment was performed in triplicate, and incubated for 2 hours in the dark prior to assay read in Perkin Elmer ViewLux ultra HTS microplate reader. FRET signal was measured by excitation at 340 nm and emission at 520 nm for fluorescein and 490 nm for terbium. Fold change over DMSO was calculated using GraphPad Prism Software (La Jolla, Calif.) by calculating 520 nm/490 nm ratio. Graphs were plotted as fold change of FRET signal for compound treatment over DMSO-only control.

$$$$
CHEMBL1946754
Actelion Java MolfileCreator 2.0

  0  0  0  0  0  0              0 V3000
M  V30 BEGIN CTAB
M  V30 COUNTS 38 42 0 0 0
M  V30 BEGIN ATOM
M  V30 1 Cl 4.3301 0.9999 0.0 0
M  V30 2 C 4.3301 0.0 0.0 0
M  V30 3 C 3.4641 -0.5 0.0 0
M  V30 4 C 5.1961 -0.5 0.0 0
M  V30 5 O 2.598 0.0 0.0 0
M  V30 6 C 3.4641 -1.5 0.0 0
M  V30 7 C 5.1961 -1.5 0.0 0
M  V30 8 C 1.732 -0.5 0.0 0 CFG=1
M  V30 9 C 4.3301 -2.0 0.0 0
M  V30 10 C 0.866 0.0 0.0 0
M  V30 11 C 1.732 -1.5 0.0 0
M  V30 12 C 4.3301 -3.0 0.0 0
M  V30 13 O 0.866 1.0 0.0 0
M  V30 14 O 0.0 -0.5 0.0 0
M  V30 15 N 5.1961 -3.5 0.0 0
M  V30 16 C 5.3006 -4.4945 0.0 0
M  V30 17 C 6.1096 -3.0932 0.0 0
M  V30 18 O 4.5575 -5.1636 0.0 0
M  V30 19 N 6.2788 -4.7024 0.0 0
M  V30 20 C 6.7788 -3.8364 0.0 0
M  V30 21 C 6.4187 -2.1422 0.0 0
M  V30 22 C 6.6855 -5.6159 0.0 0
M  V30 23 C 7.7569 -3.6284 0.0 0
M  V30 24 C 7.3968 -1.9342 0.0 0
M  V30 25 N 6.1855 -6.482 0.0 0
M  V30 26 C 7.6637 -5.8238 0.0 0
M  V30 27 C 8.0659 -2.6774 0.0 0
M  V30 28 C 7.7058 -0.9832 0.0 0
M  V30 29 O 6.8546 -7.2251 0.0 0
M  V30 30 C 7.7682 -6.8184 0.0 0
M  V30 31 C 8.4727 -5.2361 0.0 0
M  V30 32 F 6.7548 -0.6742 0.0 0
M  V30 33 F 8.0148 -0.0321 0.0 0
M  V30 34 F 8.6569 -1.2922 0.0 0
M  V30 35 C 8.6817 -7.2251 0.0 0
M  V30 36 C 9.3862 -5.6428 0.0 0
M  V30 37 C 9.4908 -6.6373 0.0 0
M  V30 38 Cl 10.1952 -5.055 0.0 0
M  V30 END ATOM
M  V30 BEGIN BOND
M  V30 1 1 1 2
M  V30 2 2 2 3
M  V30 3 1 2 4
M  V30 4 1 3 5
M  V30 5 1 3 6
M  V30 6 2 4 7
M  V30 7 1 5 8
M  V30 8 2 6 9
M  V30 9 1 8 10
M  V30 10 1 8 11 CFG=3
M  V30 11 1 9 12
M  V30 12 2 10 13
M  V30 13 1 10 14
M  V30 14 1 12 15
M  V30 15 1 15 16
M  V30 16 1 15 17
M  V30 17 2 16 18
M  V30 18 1 16 19
M  V30 19 2 17 20
M  V30 20 1 17 21
M  V30 21 1 19 22
M  V30 22 1 20 23
M  V30 23 2 21 24
M  V30 24 2 22 25
M  V30 25 1 22 26
M  V30 26 2 23 27
M  V30 27 1 24 28
M  V30 28 1 25 29
M  V30 29 2 26 30
M  V30 30 1 26 31
M  V30 31 1 28 32
M  V30 32 1 28 33
M  V30 33 1 28 34
M  V30 34 1 30 35
M  V30 35 2 31 36
M  V30 36 2 35 37
M  V30 37 1 36 38
M  V30 38 1 7 9
M  V30 39 1 19 20
M  V30 40 1 24 27
M  V30 41 1 29 30
M  V30 42 1 36 37
M  V30 END BOND
M  V30 BEGIN COLLECTION
M  V30 MDLV30/STEABS ATOMS=(1 8)
M  V30 END COLLECTION
M  V30 END CTAB
M  END
>  <Molecule ChEMBL ID>
CHEMBL1946754

>  <Smiles>
C[C@@H](Oc1cc(Cn2c(=O)n(-c3noc4ccc(Cl)cc34)c3ccc(C(F)(F)F)cc32)ccc1Cl)C(=O)O

>  <IC50_nM>
35.4

>  <Assay Description>
Binding affinity to human PPARgamma by scintillation proximity assay

$$$$
CHEMBL3699373
Actelion Java MolfileCreator 2.0

  0  0  0  0  0  0              0 V3000
M  V30 BEGIN CTAB
M  V30 COUNTS 40 44 0 0 0
M  V30 BEGIN ATOM
M  V30 1 F 9.0932 -2.9999 0.0 0
M  V30 2 C 7.7942 -2.2499 0.0 0
M  V30 3 C 6.4951 -2.9999 0.0 0
M  V30 4 C 7.7942 -0.7499 0.0 0
M  V30 5 C 5.1961 -2.2499 0.0 0
M  V30 6 C 6.4951 0.0 0.0 0
M  V30 7 C 5.1961 -0.75 0.0 0
M  V30 8 C 3.8971 -3.0 0.0 0
M  V30 9 C 3.8971 0.0 0.0 0 CFG=1
M  V30 10 F 3.1471 -1.7009 0.0 0
M  V30 11 F 2.598 -3.75 0.0 0
M  V30 12 F 4.6471 -4.299 0.0 0
M  V30 13 N 2.598 -0.75 0.0 0
M  V30 14 C 3.8971 1.5 0.0 0
M  V30 15 C 1.299 0.0 0.0 0
M  V30 16 O 1.299 1.5 0.0 0
M  V30 17 C 0.0 -0.75 0.0 0
M  V30 18 C 0.0 -2.2499 0.0 0
M  V30 19 C -1.299 0.0 0.0 0
M  V30 20 C -1.299 -2.9999 0.0 0
M  V30 21 C -2.598 -0.7499 0.0 0
M  V30 22 C -2.598 -2.2499 0.0 0
M  V30 23 C -1.6109 -4.4672 0.0 0
M  V30 24 N -3.7127 -3.2536 0.0 0
M  V30 25 C -3.1026 -4.624 0.0 0
M  V30 26 C -0.6072 -5.5819 0.0 0
M  V30 27 C -5.18 -2.9418 0.0 0
M  V30 28 C -3.8526 -5.923 0.0 0
M  V30 29 C -6.1837 -4.0565 0.0 0
M  V30 30 C -7.6509 -3.7446 0.0 0
M  V30 31 C -5.7201 -5.4831 0.0 0
M  V30 32 C -8.6546 -4.8593 0.0 0
M  V30 33 C -6.7238 -6.5978 0.0 0
M  V30 34 C -8.1911 -6.2859 0.0 0
M  V30 35 C -9.1947 -7.4006 0.0 0
M  V30 36 C -10.662 -7.0888 0.0 0
M  V30 37 C -8.7312 -8.8272 0.0 0
M  V30 38 C -11.6657 -8.2035 0.0 0
M  V30 39 C -9.7349 -9.9419 0.0 0
M  V30 40 C -11.2021 -9.6301 0.0 0
M  V30 END ATOM
M  V30 BEGIN BOND
M  V30 1 1 1 2
M  V30 2 2 2 3
M  V30 3 1 2 4
M  V30 4 1 3 5
M  V30 5 2 4 6
M  V30 6 2 5 7
M  V30 7 1 5 8
M  V30 8 1 7 9
M  V30 9 1 8 10
M  V30 10 1 8 11
M  V30 11 1 8 12
M  V30 12 1 9 13
M  V30 13 1 9 14 CFG=1
M  V30 14 1 13 15
M  V30 15 2 15 16
M  V30 16 1 15 17
M  V30 17 2 17 18
M  V30 18 1 17 19
M  V30 19 1 18 20
M  V30 20 2 19 21
M  V30 21 2 20 22
M  V30 22 1 20 23
M  V30 23 1 22 24
M  V30 24 2 23 25
M  V30 25 1 23 26
M  V30 26 1 24 27
M  V30 27 1 25 28
M  V30 28 1 27 29
M  V30 29 2 29 30
M  V30 30 1 29 31
M  V30 31 1 30 32
M  V30 32 2 31 33
M  V30 33 2 32 34
M  V30 34 1 34 35
M  V30 35 2 35 36
M  V30 36 1 35 37
M  V30 37 1 36 38
M  V30 38 2 37 39
M  V30 39 2 38 40
M  V30 40 1 6 7
M  V30 41 1 21 22
M  V30 42 1 24 25
M  V30 43 1 33 34
M  V30 44 1 39 40
M  V30 END BOND
M  V30 BEGIN COLLECTION
M  V30 MDLV30/STEABS ATOMS=(1 9)
M  V30 END COLLECTION
M  V30 END CTAB
M  END
>  <Molecule ChEMBL ID>
CHEMBL3699373

>  <Smiles>
Cc1c(C)n(Cc2ccc(-c3ccccc3)cc2)c2ccc(C(=O)N[C@@H](C)c3ccc(F)cc3C(F)(F)F)cc12

>  <IC50_nM>
36

>  <Assay Description>
Lanthascreen Competitive Binding Assay: The assay was performed according to manufacturer protocol. A mixture of nM GST-PPARG-LBD, 5 nM Tb-GST-antibody, 5 nM Fluormone Pan-PPAR Green, and serial dilutions of the experimental compound, beginning at 10 ׬M downwards, was added to wells of black 384-well low-volume plates (Greiner) to a total volume of 18 ׬L. All dilutions were made in TR-FRET assay buffer C. DMSO at 2% final concentration was used as a no-ligand control. Experiment was performed in triplicate, and incubated for 2 hours in the dark prior to assay read in Perkin Elmer ViewLux ultra HTS microplate reader. FRET signal was measured by excitation at 340 nm and emission at 520 nm for fluorescein and 490 nm for terbium. Fold change over DMSO was calculated using GraphPad Prism Software (La Jolla, Calif.) by calculating 520 nm/490 nm ratio. Graphs were plotted as fold change of FRET signal for compound treatment over DMSO-only control.

$$$$
CHEMBL590983
Actelion Java MolfileCreator 2.0

  0  0  0  0  0  0              0 V3000
M  V30 BEGIN CTAB
M  V30 COUNTS 42 46 0 0 0
M  V30 BEGIN ATOM
M  V30 1 S 4.7349 3.2212 0.0 0
M  V30 2 C 5.404 2.4781 0.0 0
M  V30 3 C 3.7567 3.0133 0.0 0
M  V30 4 C 5.1961 1.4999 0.0 0
M  V30 5 C 6.3985 2.5826 0.0 0
M  V30 6 C 6.0621 1.0 0.0 0
M  V30 7 C 4.3301 0.9999 0.0 0
M  V30 8 N 6.8053 1.6691 0.0 0
M  V30 9 C 6.8985 3.4487 0.0 0
M  V30 10 C 6.0621 0.0 0.0 0
M  V30 11 C 4.3301 0.0 0.0 0
M  V30 12 C 7.7834 1.4612 0.0 0
M  V30 13 C 6.3985 4.3147 0.0 0
M  V30 14 C 5.1961 -0.5 0.0 0
M  V30 15 N 3.4641 -0.5 0.0 0
M  V30 16 C 8.4526 2.2043 0.0 0
M  V30 17 C 6.8985 5.1807 0.0 0
M  V30 18 C 2.598 0.0 0.0 0
M  V30 19 C 9.4307 1.9964 0.0 0
M  V30 20 C 8.1435 3.1554 0.0 0
M  V30 21 O 2.598 1.0 0.0 0
M  V30 22 C 1.732 -0.5 0.0 0 CFG=1
M  V30 23 C 10.0998 2.7395 0.0 0
M  V30 24 C 8.8127 3.8985 0.0 0
M  V30 25 C 1.732 -1.5 0.0 0
M  V30 26 C 0.866 0.0 0.0 0
M  V30 27 C 9.7908 3.6906 0.0 0
M  V30 28 C 0.866 -1.9999 0.0 0
M  V30 29 C 2.598 -2.0 0.0 0
M  V30 30 C 0.0 -0.5 0.0 0
M  V30 31 C 10.4599 4.4337 0.0 0
M  V30 32 C 0.866 -2.9999 0.0 0
M  V30 33 C 2.598 -3.0 0.0 0
M  V30 34 C 11.4381 4.2258 0.0 0
M  V30 35 C 10.1509 5.3848 0.0 0
M  V30 36 C 1.732 -3.5 0.0 0
M  V30 37 C 11.7471 3.2748 0.0 0
M  V30 38 C 12.1072 4.969 0.0 0
M  V30 39 C 10.8201 6.1279 0.0 0
M  V30 40 O 11.078 2.5316 0.0 0
M  V30 41 O 12.7253 3.0669 0.0 0
M  V30 42 C 11.7982 5.92 0.0 0
M  V30 END ATOM
M  V30 BEGIN BOND
M  V30 1 1 1 2
M  V30 2 1 1 3
M  V30 3 1 2 4
M  V30 4 2 2 5
M  V30 5 2 4 6
M  V30 6 1 4 7
M  V30 7 1 5 8
M  V30 8 1 5 9
M  V30 9 1 6 10
M  V30 10 2 7 11
M  V30 11 1 8 12
M  V30 12 1 9 13
M  V30 13 2 10 14
M  V30 14 1 11 15
M  V30 15 1 12 16
M  V30 16 1 13 17
M  V30 17 1 15 18
M  V30 18 2 16 19
M  V30 19 1 16 20
M  V30 20 2 18 21
M  V30 21 1 18 22
M  V30 22 1 19 23
M  V30 23 2 20 24
M  V30 24 1 22 25
M  V30 25 1 22 26 CFG=1
M  V30 26 2 23 27
M  V30 27 2 25 28
M  V30 28 1 25 29
M  V30 29 1 26 30
M  V30 30 1 27 31
M  V30 31 1 28 32
M  V30 32 2 29 33
M  V30 33 2 31 34
M  V30 34 1 31 35
M  V30 35 2 32 36
M  V30 36 1 34 37
M  V30 37 1 34 38
M  V30 38 2 35 39
M  V30 39 2 37 40
M  V30 40 1 37 41
M  V30 41 2 38 42
M  V30 42 1 6 8
M  V30 43 1 11 14
M  V30 44 1 24 27
M  V30 45 1 33 36
M  V30 46 1 39 42
M  V30 END BOND
M  V30 BEGIN COLLECTION
M  V30 MDLV30/STERAC1 ATOMS=(1 22)
M  V30 END COLLECTION
M  V30 END CTAB
M  END
>  <Molecule ChEMBL ID>
CHEMBL590983

>  <Smiles>
CCCc1c(SC)c2cc(NC(=O)C(CC)c3ccccc3)ccc2n1Cc1ccc(-c2ccccc2C(=O)O)cc1

>  <IC50_nM>
36

>  <Assay Description>
Displacement of radiolabeled ((5-{4-[Methyl-pyridin-2yl-amino)-ethoxy]-benzyl}-thiazolidine-2,4-dione) from human PPARgamma ligand binding domain expressed in Escherichia coli

$$$$
CHEMBL484725
Actelion Java MolfileCreator 2.0

  0  0  0  0  0  0              0 V3000
M  V30 BEGIN CTAB
M  V30 COUNTS 33 36 0 0 0
M  V30 BEGIN ATOM
M  V30 1 O 4.3301 0.0 0.0 0
M  V30 2 C 3.4641 -0.5 0.0 0
M  V30 3 O 3.4641 -1.5 0.0 0
M  V30 4 C 2.598 0.0 0.0 0 CFG=1
M  V30 5 O 1.732 -0.5 0.0 0
M  V30 6 C 2.598 1.0 0.0 0
M  V30 7 C 0.866 0.0 0.0 0
M  V30 8 C 1.732 1.5 0.0 0
M  V30 9 C 0.0 -0.5 0.0 0
M  V30 10 C 1.732 2.5 0.0 0
M  V30 11 C 0.866 1.0 0.0 0
M  V30 12 C 0.866 3.0 0.0 0
M  V30 13 C 2.598 3.0 0.0 0
M  V30 14 C 0.0 1.5 0.0 0
M  V30 15 C 0.0 2.5 0.0 0
M  V30 16 C 0.866 4.0 0.0 0
M  V30 17 C 2.598 4.0 0.0 0
M  V30 18 O -0.866 3.0 0.0 0
M  V30 19 C 1.732 4.5 0.0 0
M  V30 20 C -1.732 2.5 0.0 0
M  V30 21 C -2.598 3.0 0.0 0
M  V30 22 C -3.4641 2.5 0.0 0
M  V30 23 N -4.3776 2.9067 0.0 0
M  V30 24 C -3.5686 1.5054 0.0 0
M  V30 25 C -5.0467 2.1635 0.0 0
M  V30 26 O -4.5467 1.2975 0.0 0
M  V30 27 C -2.8254 0.8363 0.0 0
M  V30 28 C -6.0412 2.2681 0.0 0
M  V30 29 C -6.448 3.1816 0.0 0
M  V30 30 C -6.629 1.4591 0.0 0
M  V30 31 C -7.4425 3.2861 0.0 0
M  V30 32 C -7.6236 1.5636 0.0 0
M  V30 33 C -8.0303 2.4771 0.0 0
M  V30 END ATOM
M  V30 BEGIN BOND
M  V30 1 2 1 2
M  V30 2 1 2 3
M  V30 3 1 2 4
M  V30 4 1 4 5 CFG=1
M  V30 5 1 4 6
M  V30 6 1 5 7
M  V30 7 1 6 8
M  V30 8 1 7 9
M  V30 9 1 8 10
M  V30 10 2 8 11
M  V30 11 1 10 12
M  V30 12 2 10 13
M  V30 13 1 11 14
M  V30 14 1 12 15
M  V30 15 2 12 16
M  V30 16 1 13 17
M  V30 17 1 15 18
M  V30 18 1 16 19
M  V30 19 1 18 20
M  V30 20 1 20 21
M  V30 21 1 21 22
M  V30 22 1 22 23
M  V30 23 2 22 24
M  V30 24 2 23 25
M  V30 25 1 24 26
M  V30 26 1 24 27
M  V30 27 1 25 28
M  V30 28 2 28 29
M  V30 29 1 28 30
M  V30 30 1 29 31
M  V30 31 2 30 32
M  V30 32 2 31 33
M  V30 33 2 14 15
M  V30 34 2 17 19
M  V30 35 1 25 26
M  V30 36 1 32 33
M  V30 END BOND
M  V30 BEGIN COLLECTION
M  V30 MDLV30/STEABS ATOMS=(1 4)
M  V30 END COLLECTION
M  V30 END CTAB
M  END
>  <Molecule ChEMBL ID>
CHEMBL484725

>  <Smiles>
CCO[C@@H](Cc1ccc(OCCc2nc(-c3ccccc3)oc2C)c2ccccc12)C(=O)O

>  <IC50_nM>
36

>  <Assay Description>
Displacement of radio labeled 2(S)-(2-benzoyl-phenylamino)-3-{4-[1,1-ditritio-2-(5-methyl-2-phenyl-oxazol-4-yl)-ethoxy]-phenyl}-propionic acid from GST-fused human PPARgamma expressed in Escherichia coli BL21 cells by scintillation proximity assay

$$$$
CHEMBL2331783
Actelion Java MolfileCreator 2.0

  0  0  0  0  0  0              0 V3000
M  V30 BEGIN CTAB
M  V30 COUNTS 27 29 0 0 0
M  V30 BEGIN ATOM
M  V30 1 Cl 2.598 2.25 0.0 0
M  V30 2 C 3.8971 1.5 0.0 0
M  V30 3 C 3.8971 0.0 0.0 0
M  V30 4 C 5.1961 2.25 0.0 0
M  V30 5 S 2.598 -0.75 0.0 0
M  V30 6 C 5.1961 -0.75 0.0 0
M  V30 7 C 6.4952 1.5 0.0 0
M  V30 8 O 1.848 -2.049 0.0 0
M  V30 9 O 3.348 -2.049 0.0 0
M  V30 10 N 1.299 0.0 0.0 0
M  V30 11 C 6.4952 0.0 0.0 0
M  V30 12 Cl 7.7942 2.25 0.0 0
M  V30 13 C 0.0 -0.75 0.0 0
M  V30 14 C -1.299 0.0 0.0 0
M  V30 15 C 0.0 -2.25 0.0 0
M  V30 16 C -2.598 -0.75 0.0 0
M  V30 17 C -1.299 -3.0 0.0 0
M  V30 18 F -3.8971 0.0 0.0 0
M  V30 19 C -2.598 -2.25 0.0 0
M  V30 20 O -3.8971 -3.0 0.0 0
M  V30 21 C -3.8971 -4.5 0.0 0
M  V30 22 C -5.1961 -5.25 0.0 0
M  V30 23 C -2.598 -5.25 0.0 0
M  V30 24 N -5.1961 -6.75 0.0 0
M  V30 25 C -2.598 -6.75 0.0 0
M  V30 26 C -3.8971 -7.5 0.0 0
M  V30 27 Cl -1.299 -7.5 0.0 0
M  V30 END ATOM
M  V30 BEGIN BOND
M  V30 1 1 1 2
M  V30 2 2 2 3
M  V30 3 1 2 4
M  V30 4 1 3 5
M  V30 5 1 3 6
M  V30 6 2 4 7
M  V30 7 2 5 8
M  V30 8 2 5 9
M  V30 9 1 5 10
M  V30 10 2 6 11
M  V30 11 1 7 12
M  V30 12 1 10 13
M  V30 13 2 13 14
M  V30 14 1 13 15
M  V30 15 1 14 16
M  V30 16 2 15 17
M  V30 17 1 16 18
M  V30 18 2 16 19
M  V30 19 1 19 20
M  V30 20 1 20 21
M  V30 21 2 21 22
M  V30 22 1 21 23
M  V30 23 1 22 24
M  V30 24 2 23 25
M  V30 25 2 24 26
M  V30 26 1 25 27
M  V30 27 1 7 11
M  V30 28 1 17 19
M  V30 29 1 25 26
M  V30 END BOND
M  V30 END CTAB
M  END
>  <Molecule ChEMBL ID>
CHEMBL2331783

>  <Smiles>
O=S(=O)(Nc1ccc(Oc2cncc(Cl)c2)c(F)c1)c1ccc(Cl)cc1Cl

>  <IC50_nM>
36

>  <Assay Description>
Displacement of [3H]-rosiglitazone from GST-tagged PPARgammaLBD (unknown origin) after 1 hr by scintillation proximity assay

$$$$
CHEMBL236218
Actelion Java MolfileCreator 2.0

  0  0  0  0  0  0              0 V3000
M  V30 BEGIN CTAB
M  V30 COUNTS 33 36 0 0 0
M  V30 BEGIN ATOM
M  V30 1 Br 9.8201 0.0444 0.0 0
M  V30 2 C 9.0701 -1.2546 0.0 0
M  V30 3 C 7.5701 -1.2546 0.0 0
M  V30 4 C 9.8201 -2.5536 0.0 0
M  V30 5 N 6.5664 -0.1398 0.0 0
M  V30 6 C 6.8201 -2.5536 0.0 0
M  V30 7 C 9.0701 -3.8526 0.0 0
M  V30 8 C 5.1961 -0.75 0.0 0
M  V30 9 C 7.5701 -3.8526 0.0 0
M  V30 10 C 5.3529 -2.2417 0.0 0
M  V30 11 C 3.8971 0.0 0.0 0
M  V30 12 O 3.8971 1.5 0.0 0
M  V30 13 N 2.598 -0.75 0.0 0
M  V30 14 C 1.299 0.0 0.0 0
M  V30 15 C 0.0 -0.75 0.0 0
M  V30 16 C -1.299 0.0 0.0 0
M  V30 17 C 0.0 -2.25 0.0 0
M  V30 18 C -2.598 -0.7499 0.0 0
M  V30 19 C -1.299 -2.9999 0.0 0
M  V30 20 O -3.8971 0.0 0.0 0
M  V30 21 C -2.598 -2.2499 0.0 0
M  V30 22 C -5.1961 -0.7499 0.0 0
M  V30 23 C -6.4951 0.0 0.0 0
M  V30 24 C -5.1961 -2.2499 0.0 0
M  V30 25 C -7.7942 -0.7499 0.0 0
M  V30 26 C -6.4951 -2.9999 0.0 0
M  V30 27 C -7.7942 -2.2499 0.0 0
M  V30 28 C -9.0932 0.0 0.0 0
M  V30 29 C -9.0932 -2.9999 0.0 0
M  V30 30 C -9.0932 -4.4999 0.0 0
M  V30 31 C -10.3923 -5.2499 0.0 0
M  V30 32 O -11.6913 -4.4999 0.0 0
M  V30 33 O -10.3923 -6.7499 0.0 0
M  V30 END ATOM
M  V30 BEGIN BOND
M  V30 1 1 1 2
M  V30 2 2 2 3
M  V30 3 1 2 4
M  V30 4 1 3 5
M  V30 5 1 3 6
M  V30 6 2 4 7
M  V30 7 1 5 8
M  V30 8 2 6 9
M  V30 9 1 6 10
M  V30 10 1 8 11
M  V30 11 2 11 12
M  V30 12 1 11 13
M  V30 13 1 13 14
M  V30 14 1 14 15
M  V30 15 2 15 16
M  V30 16 1 15 17
M  V30 17 1 16 18
M  V30 18 2 17 19
M  V30 19 1 18 20
M  V30 20 2 18 21
M  V30 21 1 20 22
M  V30 22 2 22 23
M  V30 23 1 22 24
M  V30 24 1 23 25
M  V30 25 2 24 26
M  V30 26 2 25 27
M  V30 27 1 25 28
M  V30 28 1 27 29
M  V30 29 1 29 30
M  V30 30 1 30 31
M  V30 31 2 31 32
M  V30 32 1 31 33
M  V30 33 1 7 9
M  V30 34 2 8 10
M  V30 35 1 19 21
M  V30 36 1 26 27
M  V30 END BOND
M  V30 END CTAB
M  END
>  <Molecule ChEMBL ID>
CHEMBL236218

>  <Smiles>
Cc1cc(Oc2cccc(CNC(=O)c3cc4cccc(Br)c4[nH]3)c2)ccc1CCC(=O)O

>  <IC50_nM>
36.98

>  <Assay Description>
Agonist activity at PPARgamma

$$$$
CHEMBL120570
Actelion Java MolfileCreator 2.0

  0  0  0  0  0  0              0 V3000
M  V30 BEGIN CTAB
M  V30 COUNTS 34 37 0 0 0
M  V30 BEGIN ATOM
M  V30 1 S 8.7077 -0.4067 0.0 0
M  V30 2 C 9.3769 0.3364 0.0 0
M  V30 3 C 7.7942 0.0 0.0 0 CFG=2
M  V30 4 O 10.3714 0.2318 0.0 0
M  V30 5 N 8.8769 1.2024 0.0 0
M  V30 6 C 6.9282 -0.5 0.0 0
M  V30 7 C 7.8987 0.9945 0.0 0
M  V30 8 C 6.0621 0.0 0.0 0
M  V30 9 C 6.9282 -1.5 0.0 0
M  V30 10 O 7.1556 1.6636 0.0 0
M  V30 11 C 5.1961 -0.5 0.0 0
M  V30 12 C 6.0621 -2.0 0.0 0
M  V30 13 O 4.3301 0.0 0.0 0
M  V30 14 C 5.1961 -1.5 0.0 0
M  V30 15 C 3.4641 -0.5 0.0 0
M  V30 16 C 2.598 0.0 0.0 0
M  V30 17 C 1.732 -0.5 0.0 0
M  V30 18 O 0.866 0.0 0.0 0
M  V30 19 C 0.0 -0.5 0.0 0
M  V30 20 C -0.866 0.0 0.0 0
M  V30 21 C 0.0 -1.4999 0.0 0
M  V30 22 C -1.732 -0.4999 0.0 0
M  V30 23 C -0.866 1.0 0.0 0
M  V30 24 C -0.866 -1.9999 0.0 0
M  V30 25 C -1.732 -1.4999 0.0 0
M  V30 26 C 0.0 1.5 0.0 0
M  V30 27 O -2.598 -1.9999 0.0 0
M  V30 28 C 0.0 2.5 0.0 0
M  V30 29 C -2.598 -2.9999 0.0 0
M  V30 30 C -3.4641 -3.4999 0.0 0
M  V30 31 C -1.732 -3.4999 0.0 0
M  V30 32 C -3.4641 -4.4999 0.0 0
M  V30 33 C -1.732 -4.4999 0.0 0
M  V30 34 C -2.598 -4.9999 0.0 0
M  V30 END ATOM
M  V30 BEGIN BOND
M  V30 1 1 1 2
M  V30 2 1 1 3
M  V30 3 2 2 4
M  V30 4 1 2 5
M  V30 5 1 3 6 CFG=3
M  V30 6 1 3 7
M  V30 7 2 6 8
M  V30 8 1 6 9
M  V30 9 2 7 10
M  V30 10 1 8 11
M  V30 11 2 9 12
M  V30 12 1 11 13
M  V30 13 2 11 14
M  V30 14 1 13 15
M  V30 15 1 15 16
M  V30 16 1 16 17
M  V30 17 1 17 18
M  V30 18 1 18 19
M  V30 19 2 19 20
M  V30 20 1 19 21
M  V30 21 1 20 22
M  V30 22 1 20 23
M  V30 23 2 21 24
M  V30 24 2 22 25
M  V30 25 1 23 26
M  V30 26 1 25 27
M  V30 27 1 26 28
M  V30 28 1 27 29
M  V30 29 1 29 30
M  V30 30 1 29 31
M  V30 31 1 30 32
M  V30 32 1 31 33
M  V30 33 1 32 34
M  V30 34 1 5 7
M  V30 35 1 12 14
M  V30 36 1 24 25
M  V30 37 1 33 34
M  V30 END BOND
M  V30 BEGIN COLLECTION
M  V30 MDLV30/STERAC1 ATOMS=(1 3)
M  V30 END COLLECTION
M  V30 END CTAB
M  END
>  <Molecule ChEMBL ID>
CHEMBL120570

>  <Smiles>
CCCc1cc(OC2CCCCC2)ccc1OCCCOc1cccc(C2SC(=O)NC2=O)c1

>  <IC50_nM>
37

>  <Assay Description>
In vitro binding affinity against human peroxisome proliferator activated receptor gamma

$$$$
CHEMBL3695817
Actelion Java MolfileCreator 2.0

  0  0  0  0  0  0              0 V3000
M  V30 BEGIN CTAB
M  V30 COUNTS 39 43 0 0 0
M  V30 BEGIN ATOM
M  V30 1 O 11.1837 5.7369 0.0 0
M  V30 2 C 10.8747 4.7859 0.0 0
M  V30 3 O 9.8965 4.578 0.0 0
M  V30 4 C 11.5438 4.0427 0.0 0
M  V30 5 C 11.2348 3.0917 0.0 0
M  V30 6 C 12.522 4.2506 0.0 0
M  V30 7 C 10.2566 2.8838 0.0 0
M  V30 8 C 11.9039 2.3485 0.0 0
M  V30 9 C 13.1911 3.5075 0.0 0
M  V30 10 C 9.5875 3.6269 0.0 0
M  V30 11 C 9.9476 1.9327 0.0 0
M  V30 12 C 12.8821 2.5564 0.0 0
M  V30 13 C 8.6094 3.419 0.0 0
M  V30 14 C 8.9695 1.7248 0.0 0
M  V30 15 C 8.3003 2.4679 0.0 0
M  V30 16 C 7.3222 2.26 0.0 0
M  V30 17 N 7.0132 1.309 0.0 0
M  V30 18 C 6.0621 0.9999 0.0 0
M  V30 19 C 7.601 0.5 0.0 0
M  V30 20 C 6.0621 0.0 0.0 0
M  V30 21 C 5.1961 1.4999 0.0 0
M  V30 22 C 7.0132 -0.309 0.0 0
M  V30 23 C 8.601 0.5 0.0 0
M  V30 24 C 5.1961 -0.5 0.0 0
M  V30 25 C 4.3301 0.9999 0.0 0
M  V30 26 C 7.3222 -1.26 0.0 0
M  V30 27 C 4.3301 0.0 0.0 0
M  V30 28 C 3.4641 -0.5 0.0 0
M  V30 29 O 3.4641 -1.5 0.0 0
M  V30 30 N 2.598 0.0 0.0 0
M  V30 31 C 1.732 -0.5 0.0 0 CFG=2
M  V30 32 C 1.732 -1.5 0.0 0
M  V30 33 C 0.866 0.0 0.0 0
M  V30 34 C 0.866 -1.9999 0.0 0
M  V30 35 C 2.598 -2.0 0.0 0
M  V30 36 O 0.0 -0.5 0.0 0
M  V30 37 C 0.866 -2.9999 0.0 0
M  V30 38 C 2.598 -3.0 0.0 0
M  V30 39 C 1.732 -3.5 0.0 0
M  V30 END ATOM
M  V30 BEGIN BOND
M  V30 1 2 1 2
M  V30 2 1 2 3
M  V30 3 1 2 4
M  V30 4 2 4 5
M  V30 5 1 4 6
M  V30 6 1 5 7
M  V30 7 1 5 8
M  V30 8 2 6 9
M  V30 9 2 7 10
M  V30 10 1 7 11
M  V30 11 2 8 12
M  V30 12 1 10 13
M  V30 13 2 11 14
M  V30 14 2 13 15
M  V30 15 1 15 16
M  V30 16 1 16 17
M  V30 17 1 17 18
M  V30 18 1 17 19
M  V30 19 2 18 20
M  V30 20 1 18 21
M  V30 21 2 19 22
M  V30 22 1 19 23
M  V30 23 1 20 24
M  V30 24 2 21 25
M  V30 25 1 22 26
M  V30 26 2 24 27
M  V30 27 1 27 28
M  V30 28 2 28 29
M  V30 29 1 28 30
M  V30 30 1 31 30 CFG=3
M  V30 31 1 31 32
M  V30 32 1 31 33
M  V30 33 2 32 34
M  V30 34 1 32 35
M  V30 35 1 33 36
M  V30 36 1 34 37
M  V30 37 2 35 38
M  V30 38 2 37 39
M  V30 39 1 9 12
M  V30 40 1 14 15
M  V30 41 1 20 22
M  V30 42 1 25 27
M  V30 43 1 38 39
M  V30 END BOND
M  V30 BEGIN COLLECTION
M  V30 MDLV30/STEABS ATOMS=(1 31)
M  V30 END COLLECTION
M  V30 END CTAB
M  END
>  <Molecule ChEMBL ID>
CHEMBL3695817

>  <Smiles>
Cc1c(C)n(Cc2ccc(-c3ccccc3C(=O)O)cc2)c2ccc(C(=O)N[C@@H](CO)c3ccccc3)cc12

>  <IC50_nM>
37

>  <Assay Description>
Lanthascreen Competitive Binding Assay: The assay was performed according to manufacturer protocol. A mixture of nM GST-PPARG-LBD, 5 nM Tb-GST-antibody, 5 nM Fluormone Pan-PPAR Green, and serial dilutions of the experimental compound, beginning at 10 ׬M downwards, was added to wells of black 384-well low-volume plates (Greiner) to a total volume of 18 ׬L. All dilutions were made in TR-FRET assay buffer C. DMSO at 2% final concentration was used as a no-ligand control. Experiment was performed in triplicate, and incubated for 2 hours in the dark prior to assay read in Perkin Elmer ViewLux ultra HTS microplate reader. FRET signal was measured by excitation at 340 nm and emission at 520 nm for fluorescein and 490 nm for terbium. Fold change over DMSO was calculated using GraphPad Prism Software (La Jolla, Calif.) by calculating 520 nm/490 nm ratio. Graphs were plotted as fold change of FRET signal for compound treatment over DMSO-only control.

$$$$
CHEMBL236218
Actelion Java MolfileCreator 2.0

  0  0  0  0  0  0              0 V3000
M  V30 BEGIN CTAB
M  V30 COUNTS 33 36 0 0 0
M  V30 BEGIN ATOM
M  V30 1 Br 9.8201 0.0444 0.0 0
M  V30 2 C 9.0701 -1.2546 0.0 0
M  V30 3 C 7.5701 -1.2546 0.0 0
M  V30 4 C 9.8201 -2.5536 0.0 0
M  V30 5 N 6.5664 -0.1398 0.0 0
M  V30 6 C 6.8201 -2.5536 0.0 0
M  V30 7 C 9.0701 -3.8526 0.0 0
M  V30 8 C 5.1961 -0.75 0.0 0
M  V30 9 C 7.5701 -3.8526 0.0 0
M  V30 10 C 5.3529 -2.2417 0.0 0
M  V30 11 C 3.8971 0.0 0.0 0
M  V30 12 O 3.8971 1.5 0.0 0
M  V30 13 N 2.598 -0.75 0.0 0
M  V30 14 C 1.299 0.0 0.0 0
M  V30 15 C 0.0 -0.75 0.0 0
M  V30 16 C -1.299 0.0 0.0 0
M  V30 17 C 0.0 -2.25 0.0 0
M  V30 18 C -2.598 -0.7499 0.0 0
M  V30 19 C -1.299 -2.9999 0.0 0
M  V30 20 O -3.8971 0.0 0.0 0
M  V30 21 C -2.598 -2.2499 0.0 0
M  V30 22 C -5.1961 -0.7499 0.0 0
M  V30 23 C -6.4951 0.0 0.0 0
M  V30 24 C -5.1961 -2.2499 0.0 0
M  V30 25 C -7.7942 -0.7499 0.0 0
M  V30 26 C -6.4951 -2.9999 0.0 0
M  V30 27 C -7.7942 -2.2499 0.0 0
M  V30 28 C -9.0932 0.0 0.0 0
M  V30 29 C -9.0932 -2.9999 0.0 0
M  V30 30 C -9.0932 -4.4999 0.0 0
M  V30 31 C -10.3923 -5.2499 0.0 0
M  V30 32 O -11.6913 -4.4999 0.0 0
M  V30 33 O -10.3923 -6.7499 0.0 0
M  V30 END ATOM
M  V30 BEGIN BOND
M  V30 1 1 1 2
M  V30 2 2 2 3
M  V30 3 1 2 4
M  V30 4 1 3 5
M  V30 5 1 3 6
M  V30 6 2 4 7
M  V30 7 1 5 8
M  V30 8 2 6 9
M  V30 9 1 6 10
M  V30 10 1 8 11
M  V30 11 2 11 12
M  V30 12 1 11 13
M  V30 13 1 13 14
M  V30 14 1 14 15
M  V30 15 2 15 16
M  V30 16 1 15 17
M  V30 17 1 16 18
M  V30 18 2 17 19
M  V30 19 1 18 20
M  V30 20 2 18 21
M  V30 21 1 20 22
M  V30 22 2 22 23
M  V30 23 1 22 24
M  V30 24 1 23 25
M  V30 25 2 24 26
M  V30 26 2 25 27
M  V30 27 1 25 28
M  V30 28 1 27 29
M  V30 29 1 29 30
M  V30 30 1 30 31
M  V30 31 2 31 32
M  V30 32 1 31 33
M  V30 33 1 7 9
M  V30 34 2 8 10
M  V30 35 1 19 21
M  V30 36 1 26 27
M  V30 END BOND
M  V30 END CTAB
M  END
>  <Molecule ChEMBL ID>
CHEMBL236218

>  <Smiles>
Cc1cc(Oc2cccc(CNC(=O)c3cc4cccc(Br)c4[nH]3)c2)ccc1CCC(=O)O

>  <IC50_nM>
37

>  <Assay Description>
Displacement of [3H]2-methyl-2-(4-{3-{propyl-(5-pyridin-2-yl-thiophene-2-sulfonyl)-amino}-propyl}-phenoxy)-propionic acid from human PPARgamma

$$$$
CHEMBL1783031
Actelion Java MolfileCreator 2.0

  0  0  0  0  0  0              0 V3000
M  V30 BEGIN CTAB
M  V30 COUNTS 34 37 0 0 0
M  V30 BEGIN ATOM
M  V30 1 S 8.7077 -0.4067 0.0 0
M  V30 2 C 9.3769 0.3364 0.0 0
M  V30 3 C 7.7942 0.0 0.0 0 CFG=1
M  V30 4 O 10.3714 0.2318 0.0 0
M  V30 5 N 8.8769 1.2024 0.0 0
M  V30 6 C 6.9282 -0.5 0.0 0
M  V30 7 C 7.8987 0.9945 0.0 0
M  V30 8 C 6.0621 0.0 0.0 0
M  V30 9 C 6.9282 -1.5 0.0 0
M  V30 10 O 7.1556 1.6636 0.0 0
M  V30 11 C 5.1961 -0.5 0.0 0
M  V30 12 C 6.0621 -2.0 0.0 0
M  V30 13 O 4.3301 0.0 0.0 0
M  V30 14 C 5.1961 -1.5 0.0 0
M  V30 15 C 3.4641 -0.5 0.0 0
M  V30 16 C 2.598 0.0 0.0 0
M  V30 17 C 1.732 -0.5 0.0 0
M  V30 18 O 0.866 0.0 0.0 0
M  V30 19 C 0.0 -0.5 0.0 0
M  V30 20 C -0.866 0.0 0.0 0
M  V30 21 C 0.0 -1.4999 0.0 0
M  V30 22 C -1.732 -0.4999 0.0 0
M  V30 23 C -0.866 1.0 0.0 0
M  V30 24 C -0.866 -1.9999 0.0 0
M  V30 25 C -1.732 -1.4999 0.0 0
M  V30 26 C 0.0 1.5 0.0 0
M  V30 27 O -2.598 -1.9999 0.0 0
M  V30 28 C 0.0 2.5 0.0 0
M  V30 29 C -2.598 -2.9999 0.0 0
M  V30 30 C -3.4641 -3.4999 0.0 0
M  V30 31 C -1.732 -3.4999 0.0 0
M  V30 32 C -3.4641 -4.4999 0.0 0
M  V30 33 C -1.732 -4.4999 0.0 0
M  V30 34 C -2.598 -4.9999 0.0 0
M  V30 END ATOM
M  V30 BEGIN BOND
M  V30 1 1 1 2
M  V30 2 1 1 3
M  V30 3 2 2 4
M  V30 4 1 2 5
M  V30 5 1 3 6 CFG=1
M  V30 6 1 3 7
M  V30 7 2 6 8
M  V30 8 1 6 9
M  V30 9 2 7 10
M  V30 10 1 8 11
M  V30 11 2 9 12
M  V30 12 1 11 13
M  V30 13 2 11 14
M  V30 14 1 13 15
M  V30 15 1 15 16
M  V30 16 1 16 17
M  V30 17 1 17 18
M  V30 18 1 18 19
M  V30 19 2 19 20
M  V30 20 1 19 21
M  V30 21 1 20 22
M  V30 22 1 20 23
M  V30 23 2 21 24
M  V30 24 2 22 25
M  V30 25 1 23 26
M  V30 26 1 25 27
M  V30 27 1 26 28
M  V30 28 1 27 29
M  V30 29 1 29 30
M  V30 30 1 29 31
M  V30 31 1 30 32
M  V30 32 1 31 33
M  V30 33 1 32 34
M  V30 34 1 5 7
M  V30 35 1 12 14
M  V30 36 1 24 25
M  V30 37 1 33 34
M  V30 END BOND
M  V30 BEGIN COLLECTION
M  V30 MDLV30/STEABS ATOMS=(1 3)
M  V30 END COLLECTION
M  V30 END CTAB
M  END
>  <Molecule ChEMBL ID>
CHEMBL1783031

>  <Smiles>
CCCc1cc(OC2CCCCC2)ccc1OCCCOc1cccc([C@@H]2SC(=O)NC2=O)c1

>  <IC50_nM>
37

>  <Assay Description>
Displacement of radio-labeled full agonist from PPARgamma receptor

$$$$
CHEMBL5285688
Actelion Java MolfileCreator 2.0

  0  0  0  0  0  0              0 V3000
M  V30 BEGIN CTAB
M  V30 COUNTS 28 30 0 0 0
M  V30 BEGIN ATOM
M  V30 1 Cl 6.0621 -1.9999 0.0 0
M  V30 2 C 5.1961 -1.4999 0.0 0
M  V30 3 C 5.1961 -0.5 0.0 0
M  V30 4 C 4.3301 -1.9999 0.0 0
M  V30 5 C 6.0621 0.0 0.0 0
M  V30 6 C 4.3301 0.0 0.0 0
M  V30 7 C 3.4641 -1.5 0.0 0
M  V30 8 O 6.0621 0.9999 0.0 0
M  V30 9 N 6.9282 -0.5 0.0 0
M  V30 10 C 3.4641 -0.5 0.0 0
M  V30 11 F 2.598 -2.0 0.0 0
M  V30 12 C 7.7942 0.0 0.0 0
M  V30 13 C 2.598 0.0 0.0 0
M  V30 14 C 8.6602 -0.5 0.0 0
M  V30 15 C 7.7942 0.9999 0.0 0
M  V30 16 O 2.598 1.0 0.0 0
M  V30 17 N 1.732 -0.5 0.0 0
M  V30 18 C 9.5262 0.0 0.0 0
M  V30 19 C 8.6602 -1.5 0.0 0
M  V30 20 C 8.6602 1.4999 0.0 0
M  V30 21 C 0.866 0.0 0.0 0
M  V30 22 C 9.5262 0.9999 0.0 0
M  V30 23 C 0.0 -0.5 0.0 0
M  V30 24 C -0.866 0.0 0.0 0
M  V30 25 C 0.0 -1.4999 0.0 0
M  V30 26 C -1.732 -0.4999 0.0 0
M  V30 27 C -0.866 -1.9999 0.0 0
M  V30 28 C -1.732 -1.4999 0.0 0
M  V30 END ATOM
M  V30 BEGIN BOND
M  V30 1 1 1 2
M  V30 2 2 2 3
M  V30 3 1 2 4
M  V30 4 1 3 5
M  V30 5 1 3 6
M  V30 6 2 4 7
M  V30 7 2 5 8
M  V30 8 1 5 9
M  V30 9 2 6 10
M  V30 10 1 7 11
M  V30 11 1 9 12
M  V30 12 1 10 13
M  V30 13 2 12 14
M  V30 14 1 12 15
M  V30 15 2 13 16
M  V30 16 1 13 17
M  V30 17 1 14 18
M  V30 18 1 14 19
M  V30 19 2 15 20
M  V30 20 1 17 21
M  V30 21 2 18 22
M  V30 22 1 21 23
M  V30 23 2 23 24
M  V30 24 1 23 25
M  V30 25 1 24 26
M  V30 26 2 25 27
M  V30 27 2 26 28
M  V30 28 1 7 10
M  V30 29 1 20 22
M  V30 30 1 27 28
M  V30 END BOND
M  V30 END CTAB
M  END
>  <Molecule ChEMBL ID>
CHEMBL5285688

>  <Smiles>
Cc1ccccc1NC(=O)c1cc(C(=O)NCc2ccccc2)c(F)cc1Cl

>  <IC50_nM>
38

>  <Assay Description>
Inverse agonist activity at human PPARgamma in human RT112/84 transfected with NLuc-fused FABP4 assessed as reduction in PPARgamma transactivation incubated for 6 to 18 hrs by Nano-Glo luciferase assay

$$$$
CHEMBL3695831
Actelion Java MolfileCreator 2.0

  0  0  0  0  0  0              0 V3000
M  V30 BEGIN CTAB
M  V30 COUNTS 40 44 0 0 0
M  V30 BEGIN ATOM
M  V30 1 O 6.0621 -3.0 0.0 0
M  V30 2 N 6.0621 -1.9999 0.0 0 CHG=1
M  V30 3 O 6.9282 -1.5 0.0 0 CHG=-1
M  V30 4 C 5.1961 -1.4999 0.0 0
M  V30 5 C 5.1961 -0.5 0.0 0
M  V30 6 C 4.3301 -1.9999 0.0 0
M  V30 7 C 4.3301 0.0 0.0 0
M  V30 8 C 3.4641 -1.5 0.0 0
M  V30 9 C 3.4641 -0.5 0.0 0
M  V30 10 C 2.598 0.0 0.0 0
M  V30 11 N 1.732 -0.5 0.0 0
M  V30 12 C 0.866 0.0 0.0 0
M  V30 13 O 0.866 1.0 0.0 0
M  V30 14 C 0.0 -0.5 0.0 0
M  V30 15 C 0.0 -1.4999 0.0 0
M  V30 16 C -0.866 0.0 0.0 0
M  V30 17 C -0.866 -1.9999 0.0 0
M  V30 18 C -1.732 -0.4999 0.0 0
M  V30 19 C -1.732 -1.4999 0.0 0
M  V30 20 C -1.0739 -2.9781 0.0 0
M  V30 21 N -2.4751 -2.1691 0.0 0
M  V30 22 C -2.0684 -3.0826 0.0 0
M  V30 23 C -0.4048 -3.7212 0.0 0
M  V30 24 C -3.4533 -1.9612 0.0 0
M  V30 25 C -2.5684 -3.9487 0.0 0
M  V30 26 C -4.1224 -2.7043 0.0 0
M  V30 27 C -5.1006 -2.4964 0.0 0
M  V30 28 C -3.8134 -3.6554 0.0 0
M  V30 29 C -5.7697 -3.2395 0.0 0
M  V30 30 C -4.4825 -4.3985 0.0 0
M  V30 31 C -5.4607 -4.1906 0.0 0
M  V30 32 C -6.1298 -4.9337 0.0 0
M  V30 33 C -7.108 -4.7258 0.0 0
M  V30 34 C -5.8208 -5.8848 0.0 0
M  V30 35 C -7.417 -3.7748 0.0 0
M  V30 36 C -7.7771 -5.469 0.0 0
M  V30 37 C -6.4899 -6.6279 0.0 0
M  V30 38 O -6.7478 -3.0316 0.0 0
M  V30 39 O -8.3951 -3.5669 0.0 0
M  V30 40 C -7.4681 -6.42 0.0 0
M  V30 END ATOM
M  V30 BEGIN BOND
M  V30 1 2 1 2
M  V30 2 1 2 3
M  V30 3 1 2 4
M  V30 4 2 4 5
M  V30 5 1 4 6
M  V30 6 1 5 7
M  V30 7 2 6 8
M  V30 8 2 7 9
M  V30 9 1 9 10
M  V30 10 1 10 11
M  V30 11 1 11 12
M  V30 12 2 12 13
M  V30 13 1 12 14
M  V30 14 2 14 15
M  V30 15 1 14 16
M  V30 16 1 15 17
M  V30 17 2 16 18
M  V30 18 2 17 19
M  V30 19 1 17 20
M  V30 20 1 19 21
M  V30 21 2 20 22
M  V30 22 1 20 23
M  V30 23 1 21 24
M  V30 24 1 22 25
M  V30 25 1 24 26
M  V30 26 2 26 27
M  V30 27 1 26 28
M  V30 28 1 27 29
M  V30 29 2 28 30
M  V30 30 2 29 31
M  V30 31 1 31 32
M  V30 32 2 32 33
M  V30 33 1 32 34
M  V30 34 1 33 35
M  V30 35 1 33 36
M  V30 36 2 34 37
M  V30 37 2 35 38
M  V30 38 1 35 39
M  V30 39 2 36 40
M  V30 40 1 8 9
M  V30 41 1 18 19
M  V30 42 1 21 22
M  V30 43 1 30 31
M  V30 44 1 37 40
M  V30 END BOND
M  V30 END CTAB
M  END
>  <Molecule ChEMBL ID>
CHEMBL3695831

>  <Smiles>
Cc1c(C)n(Cc2ccc(-c3ccccc3C(=O)O)cc2)c2ccc(C(=O)NCc3ccc([N+](=O)[O-])cc3)cc12

>  <IC50_nM>
38

>  <Assay Description>
Lanthascreen Competitive Binding Assay: The assay was performed according to manufacturer protocol. A mixture of nM GST-PPARG-LBD, 5 nM Tb-GST-antibody, 5 nM Fluormone Pan-PPAR Green, and serial dilutions of the experimental compound, beginning at 10 ׬M downwards, was added to wells of black 384-well low-volume plates (Greiner) to a total volume of 18 ׬L. All dilutions were made in TR-FRET assay buffer C. DMSO at 2% final concentration was used as a no-ligand control. Experiment was performed in triplicate, and incubated for 2 hours in the dark prior to assay read in Perkin Elmer ViewLux ultra HTS microplate reader. FRET signal was measured by excitation at 340 nm and emission at 520 nm for fluorescein and 490 nm for terbium. Fold change over DMSO was calculated using GraphPad Prism Software (La Jolla, Calif.) by calculating 520 nm/490 nm ratio. Graphs were plotted as fold change of FRET signal for compound treatment over DMSO-only control.

$$$$
CHEMBL380070
Actelion Java MolfileCreator 2.0

  0  0  0  0  0  0              0 V3000
M  V30 BEGIN CTAB
M  V30 COUNTS 32 35 0 0 0
M  V30 BEGIN ATOM
M  V30 1 O 4.3301 0.0 0.0 0
M  V30 2 C 3.4641 -0.5 0.0 0
M  V30 3 O 3.4641 -1.5 0.0 0
M  V30 4 C 2.598 0.0 0.0 0 CFG=1
M  V30 5 O 1.732 -0.5 0.0 0
M  V30 6 C 2.598 1.0 0.0 0
M  V30 7 C 0.866 0.0 0.0 0
M  V30 8 C 1.732 1.5 0.0 0
M  V30 9 C 0.0 -0.5 0.0 0
M  V30 10 C 0.866 1.0 0.0 0
M  V30 11 C 1.732 2.5 0.0 0
M  V30 12 C 0.0 1.5 0.0 0
M  V30 13 C 0.866 3.0 0.0 0
M  V30 14 C 0.0 2.5 0.0 0
M  V30 15 C -0.951 1.1909 0.0 0
M  V30 16 N -0.951 2.809 0.0 0
M  V30 17 C -1.5388 2.0 0.0 0
M  V30 18 C -1.26 3.76 0.0 0
M  V30 19 C -2.2382 3.9679 0.0 0
M  V30 20 N -2.6449 4.8815 0.0 0
M  V30 21 C -2.9813 3.2988 0.0 0
M  V30 22 C -3.6394 4.777 0.0 0
M  V30 23 O -3.8473 3.7988 0.0 0
M  V30 24 C -2.8768 2.3043 0.0 0
M  V30 25 C -4.3086 5.5201 0.0 0
M  V30 26 C -3.9995 6.4712 0.0 0
M  V30 27 C -5.2867 5.3122 0.0 0
M  V30 28 C -4.6687 7.2143 0.0 0
M  V30 29 C -5.9558 6.0553 0.0 0
M  V30 30 C -5.6468 7.0064 0.0 0
M  V30 31 C -4.3597 8.1654 0.0 0
M  V30 32 C -6.934 5.8474 0.0 0
M  V30 END ATOM
M  V30 BEGIN BOND
M  V30 1 2 1 2
M  V30 2 1 2 3
M  V30 3 1 2 4
M  V30 4 1 4 5 CFG=1
M  V30 5 1 4 6
M  V30 6 1 5 7
M  V30 7 1 6 8
M  V30 8 1 7 9
M  V30 9 2 8 10
M  V30 10 1 8 11
M  V30 11 1 10 12
M  V30 12 2 11 13
M  V30 13 2 12 14
M  V30 14 1 12 15
M  V30 15 1 14 16
M  V30 16 2 15 17
M  V30 17 1 16 18
M  V30 18 1 18 19
M  V30 19 1 19 20
M  V30 20 2 19 21
M  V30 21 2 20 22
M  V30 22 1 21 23
M  V30 23 1 21 24
M  V30 24 1 22 25
M  V30 25 2 25 26
M  V30 26 1 25 27
M  V30 27 1 26 28
M  V30 28 2 27 29
M  V30 29 2 28 30
M  V30 30 1 28 31
M  V30 31 1 29 32
M  V30 32 1 13 14
M  V30 33 1 16 17
M  V30 34 1 22 23
M  V30 35 1 29 30
M  V30 END BOND
M  V30 BEGIN COLLECTION
M  V30 MDLV30/STERAC1 ATOMS=(1 4)
M  V30 END COLLECTION
M  V30 END CTAB
M  END
>  <Molecule ChEMBL ID>
CHEMBL380070

>  <Smiles>
CCOC(Cc1ccc2c(ccn2Cc2nc(-c3cc(C)cc(C)c3)oc2C)c1)C(=O)O

>  <IC50_nM>
38

>  <Assay Description>
Binding affinity to PPARgamma by radio ligand binding assay

$$$$
CHEMBL3699400
Actelion Java MolfileCreator 2.0

  0  0  0  0  0  0              0 V3000
M  V30 BEGIN CTAB
M  V30 COUNTS 43 47 0 0 0
M  V30 BEGIN ATOM
M  V30 1 F 4.6961 2.366 0.0 0
M  V30 2 C 5.1961 1.4999 0.0 0
M  V30 3 F 6.0621 1.9999 0.0 0
M  V30 4 F 5.6961 0.6339 0.0 0
M  V30 5 O 4.3301 0.9999 0.0 0
M  V30 6 C 4.3301 0.0 0.0 0
M  V30 7 C 3.4641 -0.5 0.0 0
M  V30 8 C 5.1961 -0.5 0.0 0
M  V30 9 C 3.4641 -1.5 0.0 0
M  V30 10 C 2.598 0.0 0.0 0 CFG=1
M  V30 11 C 5.1961 -1.5 0.0 0
M  V30 12 C 4.3301 -2.0 0.0 0
M  V30 13 N 1.732 -0.5 0.0 0
M  V30 14 C 2.598 1.0 0.0 0
M  V30 15 C 0.866 0.0 0.0 0
M  V30 16 O 0.866 1.0 0.0 0
M  V30 17 C 0.0 -0.5 0.0 0
M  V30 18 C 0.0 -1.4999 0.0 0
M  V30 19 C -0.866 0.0 0.0 0
M  V30 20 C -0.866 -1.9999 0.0 0
M  V30 21 C -1.732 -0.4999 0.0 0
M  V30 22 C -1.732 -1.4999 0.0 0
M  V30 23 C -1.0739 -2.9781 0.0 0
M  V30 24 N -2.4751 -2.1691 0.0 0
M  V30 25 C -2.0684 -3.0826 0.0 0
M  V30 26 C -0.4048 -3.7212 0.0 0
M  V30 27 C -3.4533 -1.9612 0.0 0
M  V30 28 C -2.5684 -3.9487 0.0 0
M  V30 29 C -4.1224 -2.7043 0.0 0
M  V30 30 C -5.1006 -2.4964 0.0 0
M  V30 31 C -3.8134 -3.6554 0.0 0
M  V30 32 C -5.7697 -3.2395 0.0 0
M  V30 33 C -4.4825 -4.3985 0.0 0
M  V30 34 C -5.4607 -4.1906 0.0 0
M  V30 35 C -6.1298 -4.9337 0.0 0
M  V30 36 C -7.108 -4.7258 0.0 0
M  V30 37 C -5.8208 -5.8848 0.0 0
M  V30 38 C -7.417 -3.7748 0.0 0
M  V30 39 C -7.7771 -5.469 0.0 0
M  V30 40 C -6.4899 -6.6279 0.0 0
M  V30 41 O -6.7478 -3.0316 0.0 0
M  V30 42 O -8.3951 -3.5669 0.0 0
M  V30 43 C -7.4681 -6.42 0.0 0
M  V30 END ATOM
M  V30 BEGIN BOND
M  V30 1 1 1 2
M  V30 2 1 2 3
M  V30 3 1 2 4
M  V30 4 1 2 5
M  V30 5 1 5 6
M  V30 6 2 6 7
M  V30 7 1 6 8
M  V30 8 1 7 9
M  V30 9 1 7 10
M  V30 10 2 8 11
M  V30 11 2 9 12
M  V30 12 1 10 13
M  V30 13 1 10 14 CFG=1
M  V30 14 1 13 15
M  V30 15 2 15 16
M  V30 16 1 15 17
M  V30 17 2 17 18
M  V30 18 1 17 19
M  V30 19 1 18 20
M  V30 20 2 19 21
M  V30 21 2 20 22
M  V30 22 1 20 23
M  V30 23 1 22 24
M  V30 24 2 23 25
M  V30 25 1 23 26
M  V30 26 1 24 27
M  V30 27 1 25 28
M  V30 28 1 27 29
M  V30 29 2 29 30
M  V30 30 1 29 31
M  V30 31 1 30 32
M  V30 32 2 31 33
M  V30 33 2 32 34
M  V30 34 1 34 35
M  V30 35 2 35 36
M  V30 36 1 35 37
M  V30 37 1 36 38
M  V30 38 1 36 39
M  V30 39 2 37 40
M  V30 40 2 38 41
M  V30 41 1 38 42
M  V30 42 2 39 43
M  V30 43 1 11 12
M  V30 44 1 21 22
M  V30 45 1 24 25
M  V30 46 1 33 34
M  V30 47 1 40 43
M  V30 END BOND
M  V30 BEGIN COLLECTION
M  V30 MDLV30/STEABS ATOMS=(1 10)
M  V30 END COLLECTION
M  V30 END CTAB
M  END
>  <Molecule ChEMBL ID>
CHEMBL3699400

>  <Smiles>
Cc1c(C)n(Cc2ccc(-c3ccccc3C(=O)O)cc2)c2ccc(C(=O)N[C@@H](C)c3ccccc3OC(F)(F)F)cc12

>  <IC50_nM>
38

>  <Assay Description>
Lanthascreen Competitive Binding Assay: The assay was performed according to manufacturer protocol. A mixture of nM GST-PPARG-LBD, 5 nM Tb-GST-antibody, 5 nM Fluormone Pan-PPAR Green, and serial dilutions of the experimental compound, beginning at 10 ׬M downwards, was added to wells of black 384-well low-volume plates (Greiner) to a total volume of 18 ׬L. All dilutions were made in TR-FRET assay buffer C. DMSO at 2% final concentration was used as a no-ligand control. Experiment was performed in triplicate, and incubated for 2 hours in the dark prior to assay read in Perkin Elmer ViewLux ultra HTS microplate reader. FRET signal was measured by excitation at 340 nm and emission at 520 nm for fluorescein and 490 nm for terbium. Fold change over DMSO was calculated using GraphPad Prism Software (La Jolla, Calif.) by calculating 520 nm/490 nm ratio. Graphs were plotted as fold change of FRET signal for compound treatment over DMSO-only control.

$$$$
CHEMBL213314
Actelion Java MolfileCreator 2.0

  0  0  0  0  0  0              0 V3000
M  V30 BEGIN CTAB
M  V30 COUNTS 34 36 0 0 0
M  V30 BEGIN ATOM
M  V30 1 O 7.7942 2.25 0.0 0
M  V30 2 C 9.0932 1.5 0.0 0
M  V30 3 C 9.0932 0.0 0.0 0
M  V30 4 C 10.3923 2.25 0.0 0
M  V30 5 C 7.7942 -0.75 0.0 0
M  V30 6 C 10.3923 -0.75 0.0 0
M  V30 7 C 11.6913 1.5 0.0 0
M  V30 8 C 10.3923 3.75 0.0 0
M  V30 9 O 6.4951 0.0 0.0 0
M  V30 10 C 7.7942 -2.25 0.0 0
M  V30 11 C 10.3923 -2.25 0.0 0
M  V30 12 C 12.9903 2.25 0.0 0
M  V30 13 C 11.6913 4.5 0.0 0
M  V30 14 C 5.1961 -0.75 0.0 0
M  V30 15 C 9.0932 -3.0 0.0 0
M  V30 16 C 11.6913 -3.0 0.0 0
M  V30 17 C 12.9903 3.75 0.0 0
M  V30 18 C 3.8971 0.0 0.0 0
M  V30 19 C 12.9903 -2.25 0.0 0
M  V30 20 C 2.598 -0.75 0.0 0
M  V30 21 O 1.299 0.0 0.0 0
M  V30 22 C 0.0 -0.75 0.0 0
M  V30 23 C -1.299 0.0 0.0 0
M  V30 24 C 0.0 -2.25 0.0 0
M  V30 25 C -2.598 -0.75 0.0 0
M  V30 26 C -1.299 -3.0 0.0 0
M  V30 27 C -2.598 -2.25 0.0 0
M  V30 28 O -3.8971 -3.0 0.0 0
M  V30 29 C -3.8971 -4.5 0.0 0
M  V30 30 C -5.1961 -5.25 0.0 0
M  V30 31 C -3.1471 -5.799 0.0 0
M  V30 32 C -2.3971 -4.4999 0.0 0
M  V30 33 O -6.4951 -4.5 0.0 0
M  V30 34 O -5.1961 -6.75 0.0 0
M  V30 END ATOM
M  V30 BEGIN BOND
M  V30 1 2 1 2
M  V30 2 1 2 3
M  V30 3 1 2 4
M  V30 4 2 3 5
M  V30 5 1 3 6
M  V30 6 2 4 7
M  V30 7 1 4 8
M  V30 8 1 5 9
M  V30 9 1 5 10
M  V30 10 2 6 11
M  V30 11 1 7 12
M  V30 12 2 8 13
M  V30 13 1 9 14
M  V30 14 2 10 15
M  V30 15 1 11 16
M  V30 16 2 12 17
M  V30 17 1 14 18
M  V30 18 1 16 19
M  V30 19 1 18 20
M  V30 20 1 20 21
M  V30 21 1 21 22
M  V30 22 2 22 23
M  V30 23 1 22 24
M  V30 24 1 23 25
M  V30 25 2 24 26
M  V30 26 2 25 27
M  V30 27 1 27 28
M  V30 28 1 28 29
M  V30 29 1 29 30
M  V30 30 1 29 31
M  V30 31 1 29 32
M  V30 32 2 30 33
M  V30 33 1 30 34
M  V30 34 1 11 15
M  V30 35 1 13 17
M  V30 36 1 26 27
M  V30 END BOND
M  V30 END CTAB
M  END
>  <Molecule ChEMBL ID>
CHEMBL213314

>  <Smiles>
CCc1ccc(OCCCOc2ccc(OC(C)(C)C(=O)O)cc2)c(C(=O)c2ccccc2)c1

>  <IC50_nM>
38

>  <Assay Description>
Displacement of [3H]2-methyl-2-(4-{3-[propyl-(5-pyridin-2-yl-thiophene-2-sulfonyl)-amino]-propyl}-phenoxy)-propionic acid from human PPARgamma by SPA

$$$$
CHEMBL3695831
Actelion Java MolfileCreator 2.0

  0  0  0  0  0  0              0 V3000
M  V30 BEGIN CTAB
M  V30 COUNTS 40 44 0 0 0
M  V30 BEGIN ATOM
M  V30 1 O 6.0621 -3.0 0.0 0
M  V30 2 N 6.0621 -1.9999 0.0 0 CHG=1
M  V30 3 O 6.9282 -1.5 0.0 0 CHG=-1
M  V30 4 C 5.1961 -1.4999 0.0 0
M  V30 5 C 5.1961 -0.5 0.0 0
M  V30 6 C 4.3301 -1.9999 0.0 0
M  V30 7 C 4.3301 0.0 0.0 0
M  V30 8 C 3.4641 -1.5 0.0 0
M  V30 9 C 3.4641 -0.5 0.0 0
M  V30 10 C 2.598 0.0 0.0 0
M  V30 11 N 1.732 -0.5 0.0 0
M  V30 12 C 0.866 0.0 0.0 0
M  V30 13 O 0.866 1.0 0.0 0
M  V30 14 C 0.0 -0.5 0.0 0
M  V30 15 C 0.0 -1.4999 0.0 0
M  V30 16 C -0.866 0.0 0.0 0
M  V30 17 C -0.866 -1.9999 0.0 0
M  V30 18 C -1.732 -0.4999 0.0 0
M  V30 19 C -1.732 -1.4999 0.0 0
M  V30 20 C -1.0739 -2.9781 0.0 0
M  V30 21 N -2.4751 -2.1691 0.0 0
M  V30 22 C -2.0684 -3.0826 0.0 0
M  V30 23 C -0.4048 -3.7212 0.0 0
M  V30 24 C -3.4533 -1.9612 0.0 0
M  V30 25 C -2.5684 -3.9487 0.0 0
M  V30 26 C -4.1224 -2.7043 0.0 0
M  V30 27 C -5.1006 -2.4964 0.0 0
M  V30 28 C -3.8134 -3.6554 0.0 0
M  V30 29 C -5.7697 -3.2395 0.0 0
M  V30 30 C -4.4825 -4.3985 0.0 0
M  V30 31 C -5.4607 -4.1906 0.0 0
M  V30 32 C -6.1298 -4.9337 0.0 0
M  V30 33 C -7.108 -4.7258 0.0 0
M  V30 34 C -5.8208 -5.8848 0.0 0
M  V30 35 C -7.417 -3.7748 0.0 0
M  V30 36 C -7.7771 -5.469 0.0 0
M  V30 37 C -6.4899 -6.6279 0.0 0
M  V30 38 O -6.7478 -3.0316 0.0 0
M  V30 39 O -8.3951 -3.5669 0.0 0
M  V30 40 C -7.4681 -6.42 0.0 0
M  V30 END ATOM
M  V30 BEGIN BOND
M  V30 1 2 1 2
M  V30 2 1 2 3
M  V30 3 1 2 4
M  V30 4 2 4 5
M  V30 5 1 4 6
M  V30 6 1 5 7
M  V30 7 2 6 8
M  V30 8 2 7 9
M  V30 9 1 9 10
M  V30 10 1 10 11
M  V30 11 1 11 12
M  V30 12 2 12 13
M  V30 13 1 12 14
M  V30 14 2 14 15
M  V30 15 1 14 16
M  V30 16 1 15 17
M  V30 17 2 16 18
M  V30 18 2 17 19
M  V30 19 1 17 20
M  V30 20 1 19 21
M  V30 21 2 20 22
M  V30 22 1 20 23
M  V30 23 1 21 24
M  V30 24 1 22 25
M  V30 25 1 24 26
M  V30 26 2 26 27
M  V30 27 1 26 28
M  V30 28 1 27 29
M  V30 29 2 28 30
M  V30 30 2 29 31
M  V30 31 1 31 32
M  V30 32 2 32 33
M  V30 33 1 32 34
M  V30 34 1 33 35
M  V30 35 1 33 36
M  V30 36 2 34 37
M  V30 37 2 35 38
M  V30 38 1 35 39
M  V30 39 2 36 40
M  V30 40 1 8 9
M  V30 41 1 18 19
M  V30 42 1 21 22
M  V30 43 1 30 31
M  V30 44 1 37 40
M  V30 END BOND
M  V30 END CTAB
M  END
>  <Molecule ChEMBL ID>
CHEMBL3695831

>  <Smiles>
Cc1c(C)n(Cc2ccc(-c3ccccc3C(=O)O)cc2)c2ccc(C(=O)NCc3ccc([N+](=O)[O-])cc3)cc12

>  <IC50_nM>
38

>  <Assay Description>
Binding affinity to GST-tagged PPAR-gamma-LBD (unknown origin) after 2 hrs by Lantha screen assay using fluormone Pan-PPAR green probe

$$$$
CHEMBL121
Actelion Java MolfileCreator 2.0

  0  0  0  0  0  0              0 V3000
M  V30 BEGIN CTAB
M  V30 COUNTS 25 27 0 0 0
M  V30 BEGIN ATOM
M  V30 1 S 7.8987 0.0054 0.0 0
M  V30 2 C 8.8769 -0.2024 0.0 0
M  V30 3 C 7.7942 0.9999 0.0 0 CFG=2
M  V30 4 O 9.2836 -1.1159 0.0 0
M  V30 5 N 9.3769 0.6635 0.0 0
M  V30 6 C 8.7077 1.4067 0.0 0
M  V30 7 C 6.9282 1.4999 0.0 0
M  V30 8 O 8.9156 2.3848 0.0 0
M  V30 9 C 6.0621 0.9999 0.0 0
M  V30 10 C 5.1961 1.4999 0.0 0
M  V30 11 C 6.0621 0.0 0.0 0
M  V30 12 C 4.3301 0.9999 0.0 0
M  V30 13 C 5.1961 -0.5 0.0 0
M  V30 14 C 4.3301 0.0 0.0 0
M  V30 15 O 3.4641 -0.5 0.0 0
M  V30 16 C 2.598 0.0 0.0 0
M  V30 17 C 1.732 -0.5 0.0 0
M  V30 18 N 0.866 0.0 0.0 0
M  V30 19 C 0.866 1.0 0.0 0
M  V30 20 C 0.0 -0.5 0.0 0
M  V30 21 N 1.732 1.4999 0.0 0
M  V30 22 C 0.0 1.4999 0.0 0
M  V30 23 C 1.732 2.5 0.0 0
M  V30 24 C 0.0 2.5 0.0 0
M  V30 25 C 0.866 3.0 0.0 0
M  V30 END ATOM
M  V30 BEGIN BOND
M  V30 1 1 1 2
M  V30 2 1 1 3
M  V30 3 2 2 4
M  V30 4 1 2 5
M  V30 5 1 3 6
M  V30 6 1 3 7 CFG=1
M  V30 7 2 6 8
M  V30 8 1 7 9
M  V30 9 2 9 10
M  V30 10 1 9 11
M  V30 11 1 10 12
M  V30 12 2 11 13
M  V30 13 2 12 14
M  V30 14 1 14 15
M  V30 15 1 15 16
M  V30 16 1 16 17
M  V30 17 1 17 18
M  V30 18 1 18 19
M  V30 19 1 18 20
M  V30 20 2 19 21
M  V30 21 1 19 22
M  V30 22 1 21 23
M  V30 23 2 22 24
M  V30 24 2 23 25
M  V30 25 1 5 6
M  V30 26 1 13 14
M  V30 27 1 24 25
M  V30 END BOND
M  V30 BEGIN COLLECTION
M  V30 MDLV30/STERAC1 ATOMS=(1 3)
M  V30 END COLLECTION
M  V30 END CTAB
M  END
>  <Molecule ChEMBL ID>
CHEMBL121

>  <Smiles>
CN(CCOc1ccc(CC2SC(=O)NC2=O)cc1)c1ccccn1

>  <IC50_nM>
38

>  <Assay Description>
Binding affinity to GST-tagged human PPAR-gamma receptor by FRET assay

$$$$
CHEMBL213314
Actelion Java MolfileCreator 2.0

  0  0  0  0  0  0              0 V3000
M  V30 BEGIN CTAB
M  V30 COUNTS 34 36 0 0 0
M  V30 BEGIN ATOM
M  V30 1 O 7.7942 2.25 0.0 0
M  V30 2 C 9.0932 1.5 0.0 0
M  V30 3 C 9.0932 0.0 0.0 0
M  V30 4 C 10.3923 2.25 0.0 0
M  V30 5 C 7.7942 -0.75 0.0 0
M  V30 6 C 10.3923 -0.75 0.0 0
M  V30 7 C 11.6913 1.5 0.0 0
M  V30 8 C 10.3923 3.75 0.0 0
M  V30 9 O 6.4951 0.0 0.0 0
M  V30 10 C 7.7942 -2.25 0.0 0
M  V30 11 C 10.3923 -2.25 0.0 0
M  V30 12 C 12.9903 2.25 0.0 0
M  V30 13 C 11.6913 4.5 0.0 0
M  V30 14 C 5.1961 -0.75 0.0 0
M  V30 15 C 9.0932 -3.0 0.0 0
M  V30 16 C 11.6913 -3.0 0.0 0
M  V30 17 C 12.9903 3.75 0.0 0
M  V30 18 C 3.8971 0.0 0.0 0
M  V30 19 C 12.9903 -2.25 0.0 0
M  V30 20 C 2.598 -0.75 0.0 0
M  V30 21 O 1.299 0.0 0.0 0
M  V30 22 C 0.0 -0.75 0.0 0
M  V30 23 C -1.299 0.0 0.0 0
M  V30 24 C 0.0 -2.25 0.0 0
M  V30 25 C -2.598 -0.75 0.0 0
M  V30 26 C -1.299 -3.0 0.0 0
M  V30 27 C -2.598 -2.25 0.0 0
M  V30 28 O -3.8971 -3.0 0.0 0
M  V30 29 C -3.8971 -4.5 0.0 0
M  V30 30 C -5.1961 -5.25 0.0 0
M  V30 31 C -3.1471 -5.799 0.0 0
M  V30 32 C -2.3971 -4.4999 0.0 0
M  V30 33 O -6.4951 -4.5 0.0 0
M  V30 34 O -5.1961 -6.75 0.0 0
M  V30 END ATOM
M  V30 BEGIN BOND
M  V30 1 2 1 2
M  V30 2 1 2 3
M  V30 3 1 2 4
M  V30 4 2 3 5
M  V30 5 1 3 6
M  V30 6 2 4 7
M  V30 7 1 4 8
M  V30 8 1 5 9
M  V30 9 1 5 10
M  V30 10 2 6 11
M  V30 11 1 7 12
M  V30 12 2 8 13
M  V30 13 1 9 14
M  V30 14 2 10 15
M  V30 15 1 11 16
M  V30 16 2 12 17
M  V30 17 1 14 18
M  V30 18 1 16 19
M  V30 19 1 18 20
M  V30 20 1 20 21
M  V30 21 1 21 22
M  V30 22 2 22 23
M  V30 23 1 22 24
M  V30 24 1 23 25
M  V30 25 2 24 26
M  V30 26 2 25 27
M  V30 27 1 27 28
M  V30 28 1 28 29
M  V30 29 1 29 30
M  V30 30 1 29 31
M  V30 31 1 29 32
M  V30 32 2 30 33
M  V30 33 1 30 34
M  V30 34 1 11 15
M  V30 35 1 13 17
M  V30 36 1 26 27
M  V30 END BOND
M  V30 END CTAB
M  END
>  <Molecule ChEMBL ID>
CHEMBL213314

>  <Smiles>
CCc1ccc(OCCCOc2ccc(OC(C)(C)C(=O)O)cc2)c(C(=O)c2ccccc2)c1

>  <IC50_nM>
38.02

>  <Assay Description>
Agonist activity at PPARgamma

$$$$
CHEMBL238357
Actelion Java MolfileCreator 2.0

  0  0  0  0  0  0              0 V3000
M  V30 BEGIN CTAB
M  V30 COUNTS 38 41 0 0 0
M  V30 BEGIN ATOM
M  V30 1 Cl 6.5467 -3.4344 0.0 0
M  V30 2 C 6.0467 -2.5684 0.0 0
M  V30 3 C 5.0467 -2.5684 0.0 0
M  V30 4 C 6.5467 -1.7024 0.0 0
M  V30 5 C 4.5467 -1.7024 0.0 0
M  V30 6 C 6.0467 -0.8364 0.0 0
M  V30 7 C 5.0467 -0.8364 0.0 0
M  V30 8 C 3.5686 -1.4945 0.0 0
M  V30 9 N 4.3776 -0.0932 0.0 0
M  V30 10 C 3.4641 -0.5 0.0 0
M  V30 11 C 2.8254 -2.1636 0.0 0
M  V30 12 C 4.5855 0.8848 0.0 0
M  V30 13 C 2.598 0.0 0.0 0
M  V30 14 O 2.598 1.0 0.0 0
M  V30 15 N 1.732 -0.5 0.0 0
M  V30 16 C 0.866 0.0 0.0 0 CFG=1
M  V30 17 C 0.866 1.0 0.0 0
M  V30 18 C 0.0 -0.5 0.0 0
M  V30 19 C 1.732 1.4999 0.0 0
M  V30 20 C 0.0 1.4999 0.0 0
M  V30 21 C 1.732 2.4999 0.0 0
M  V30 22 C 0.0 2.4999 0.0 0
M  V30 23 F 2.598 2.9999 0.0 0
M  V30 24 C 0.866 2.9999 0.0 0
M  V30 25 O -0.866 2.9999 0.0 0
M  V30 26 C -1.732 2.4999 0.0 0
M  V30 27 C -2.598 2.9999 0.0 0
M  V30 28 C -1.732 1.4999 0.0 0
M  V30 29 C -3.4641 2.4999 0.0 0
M  V30 30 C -2.598 0.9999 0.0 0
M  V30 31 C -3.4641 1.4999 0.0 0
M  V30 32 C -4.3301 2.9999 0.0 0
M  V30 33 C -4.3301 0.9999 0.0 0
M  V30 34 C -5.1961 2.4999 0.0 0
M  V30 35 C -4.3301 0.0 0.0 0
M  V30 36 C -5.1961 -0.5 0.0 0
M  V30 37 O -6.0621 0.0 0.0 0
M  V30 38 O -5.1961 -1.5 0.0 0
M  V30 END ATOM
M  V30 BEGIN BOND
M  V30 1 1 1 2
M  V30 2 2 2 3
M  V30 3 1 2 4
M  V30 4 1 3 5
M  V30 5 2 4 6
M  V30 6 2 5 7
M  V30 7 1 5 8
M  V30 8 1 7 9
M  V30 9 2 8 10
M  V30 10 1 8 11
M  V30 11 1 9 12
M  V30 12 1 10 13
M  V30 13 2 13 14
M  V30 14 1 13 15
M  V30 15 1 15 16
M  V30 16 1 16 17
M  V30 17 1 16 18 CFG=3
M  V30 18 2 17 19
M  V30 19 1 17 20
M  V30 20 1 19 21
M  V30 21 2 20 22
M  V30 22 1 21 23
M  V30 23 2 21 24
M  V30 24 1 22 25
M  V30 25 1 25 26
M  V30 26 2 26 27
M  V30 27 1 26 28
M  V30 28 1 27 29
M  V30 29 2 28 30
M  V30 30 2 29 31
M  V30 31 1 29 32
M  V30 32 1 31 33
M  V30 33 1 32 34
M  V30 34 1 33 35
M  V30 35 1 35 36
M  V30 36 2 36 37
M  V30 37 1 36 38
M  V30 38 1 6 7
M  V30 39 1 9 10
M  V30 40 1 22 24
M  V30 41 1 30 31
M  V30 END BOND
M  V30 BEGIN COLLECTION
M  V30 MDLV30/STEABS ATOMS=(1 16)
M  V30 END COLLECTION
M  V30 END CTAB
M  END
>  <Molecule ChEMBL ID>
CHEMBL238357

>  <Smiles>
CCc1cc(Oc2cc(F)cc([C@@H](C)NC(=O)c3c(C)c4cc(Cl)ccc4n3C)c2)ccc1CCC(=O)O

>  <IC50_nM>
38.99

>  <Assay Description>
Agonist activity at PPARgamma

$$$$
CHEMBL549351
Actelion Java MolfileCreator 2.0

  0  0  0  0  0  0              0 V3000
M  V30 BEGIN CTAB
M  V30 COUNTS 23 22 0 0 0
M  V30 BEGIN ATOM
M  V30 1 O 14.2894 -3.0 0.0 0
M  V30 2 N 15.5884 -2.25 0.0 0 CHG=1
M  V30 3 O 16.8874 -3.0 0.0 0 CHG=-1
M  V30 4 C 15.5884 -0.75 0.0 0
M  V30 5 C 16.8874 0.0 0.0 0
M  V30 6 C 14.2894 0.0 0.0 0
M  V30 7 C 16.8874 1.5 0.0 0
M  V30 8 C 12.9903 -0.75 0.0 0
M  V30 9 C 18.1865 2.2499 0.0 0
M  V30 10 C 11.6913 0.0 0.0 0
M  V30 11 C 18.1865 3.7499 0.0 0
M  V30 12 C 10.3923 -0.75 0.0 0
M  V30 13 C 19.4855 4.4999 0.0 0
M  V30 14 C 9.0932 0.0 0.0 0
M  V30 15 C 19.4855 5.9999 0.0 0
M  V30 16 C 7.7942 -0.75 0.0 0
M  V30 17 C 6.4951 0.0 0.0 0
M  V30 18 C 5.1961 -0.75 0.0 0
M  V30 19 C 3.8971 0.0 0.0 0
M  V30 20 C 2.598 -0.75 0.0 0
M  V30 21 C 1.299 0.0 0.0 0
M  V30 22 O 1.299 1.5 0.0 0
M  V30 23 O 0.0 -0.75 0.0 0
M  V30 END ATOM
M  V30 BEGIN BOND
M  V30 1 2 1 2
M  V30 2 1 2 3
M  V30 3 1 2 4
M  V30 4 2 4 5
M  V30 5 1 4 6
M  V30 6 1 5 7
M  V30 7 1 6 8
M  V30 8 1 7 9
M  V30 9 1 8 10
M  V30 10 1 9 11
M  V30 11 1 10 12
M  V30 12 1 11 13
M  V30 13 1 12 14
M  V30 14 1 13 15
M  V30 15 1 14 16
M  V30 16 1 16 17
M  V30 17 1 17 18
M  V30 18 1 18 19
M  V30 19 1 19 20
M  V30 20 1 20 21
M  V30 21 2 21 22
M  V30 22 1 21 23
M  V30 END BOND
M  V30 END CTAB
M  END
>  <Molecule ChEMBL ID>
CHEMBL549351

>  <Smiles>
CCCCC/C=C(\CCCCCCCCCCC(=O)O)[N+](=O)[O-]

>  <IC50_nM>
39

>  <Assay Description>
Displacement of [3H2]nTZD3 from GST-tagged human recombinant PPARgamma by scintillation proximity assay

$$$$
CHEMBL3695897
Actelion Java MolfileCreator 2.0

  0  0  0  0  0  0              0 V3000
M  V30 BEGIN CTAB
M  V30 COUNTS 39 43 0 0 0
M  V30 BEGIN ATOM
M  V30 1 F 5.5621 0.866 0.0 0
M  V30 2 C 6.0621 0.0 0.0 0
M  V30 3 F 6.9282 0.4999 0.0 0
M  V30 4 F 6.5621 -0.866 0.0 0
M  V30 5 C 5.1961 -0.5 0.0 0
M  V30 6 C 4.3301 0.0 0.0 0
M  V30 7 C 5.1961 -1.4999 0.0 0
M  V30 8 C 3.4641 -0.5 0.0 0
M  V30 9 C 4.3301 -1.9999 0.0 0
M  V30 10 C 3.4641 -1.4999 0.0 0
M  V30 11 C 2.598 0.0 0.0 0 CFG=1
M  V30 12 N 1.732 -0.5 0.0 0
M  V30 13 C 2.598 1.0 0.0 0
M  V30 14 C 0.866 0.0 0.0 0
M  V30 15 O 0.866 1.0 0.0 0
M  V30 16 C 0.0 -0.5 0.0 0
M  V30 17 C 0.0 -1.4999 0.0 0
M  V30 18 C -0.866 0.0 0.0 0
M  V30 19 C -0.866 -1.9999 0.0 0
M  V30 20 C -1.732 -0.4999 0.0 0
M  V30 21 C -1.732 -1.4999 0.0 0
M  V30 22 C -1.0739 -2.9781 0.0 0
M  V30 23 N -2.4751 -2.1691 0.0 0
M  V30 24 C -2.0684 -3.0826 0.0 0
M  V30 25 C -0.4048 -3.7212 0.0 0
M  V30 26 C -3.4533 -1.9612 0.0 0
M  V30 27 C -2.5684 -3.9487 0.0 0
M  V30 28 C -4.1224 -2.7043 0.0 0
M  V30 29 C -5.1006 -2.4964 0.0 0
M  V30 30 C -3.8134 -3.6554 0.0 0
M  V30 31 C -5.7697 -3.2395 0.0 0
M  V30 32 C -4.4825 -4.3985 0.0 0
M  V30 33 C -5.4607 -4.1906 0.0 0
M  V30 34 C -6.1298 -4.9337 0.0 0
M  V30 35 C -7.108 -4.7258 0.0 0
M  V30 36 C -5.8208 -5.8848 0.0 0
M  V30 37 C -7.7771 -5.469 0.0 0
M  V30 38 C -6.4899 -6.6279 0.0 0
M  V30 39 C -7.4681 -6.42 0.0 0
M  V30 END ATOM
M  V30 BEGIN BOND
M  V30 1 1 1 2
M  V30 2 1 2 3
M  V30 3 1 2 4
M  V30 4 1 2 5
M  V30 5 2 5 6
M  V30 6 1 5 7
M  V30 7 1 6 8
M  V30 8 2 7 9
M  V30 9 2 8 10
M  V30 10 1 8 11
M  V30 11 1 11 12
M  V30 12 1 11 13 CFG=1
M  V30 13 1 12 14
M  V30 14 2 14 15
M  V30 15 1 14 16
M  V30 16 2 16 17
M  V30 17 1 16 18
M  V30 18 1 17 19
M  V30 19 2 18 20
M  V30 20 2 19 21
M  V30 21 1 19 22
M  V30 22 1 21 23
M  V30 23 2 22 24
M  V30 24 1 22 25
M  V30 25 1 23 26
M  V30 26 1 24 27
M  V30 27 1 26 28
M  V30 28 2 28 29
M  V30 29 1 28 30
M  V30 30 1 29 31
M  V30 31 2 30 32
M  V30 32 2 31 33
M  V30 33 1 33 34
M  V30 34 2 34 35
M  V30 35 1 34 36
M  V30 36 1 35 37
M  V30 37 2 36 38
M  V30 38 2 37 39
M  V30 39 1 9 10
M  V30 40 1 20 21
M  V30 41 1 23 24
M  V30 42 1 32 33
M  V30 43 1 38 39
M  V30 END BOND
M  V30 BEGIN COLLECTION
M  V30 MDLV30/STEABS ATOMS=(1 11)
M  V30 END COLLECTION
M  V30 END CTAB
M  END
>  <Molecule ChEMBL ID>
CHEMBL3695897

>  <Smiles>
Cc1c(C)n(Cc2ccc(-c3ccccc3)cc2)c2ccc(C(=O)N[C@@H](C)c3cccc(C(F)(F)F)c3)cc12

>  <IC50_nM>
39

>  <Assay Description>
Lanthascreen Competitive Binding Assay: The assay was performed according to manufacturer protocol. A mixture of nM GST-PPARG-LBD, 5 nM Tb-GST-antibody, 5 nM Fluormone Pan-PPAR Green, and serial dilutions of the experimental compound, beginning at 10 ׬M downwards, was added to wells of black 384-well low-volume plates (Greiner) to a total volume of 18 ׬L. All dilutions were made in TR-FRET assay buffer C. DMSO at 2% final concentration was used as a no-ligand control. Experiment was performed in triplicate, and incubated for 2 hours in the dark prior to assay read in Perkin Elmer ViewLux ultra HTS microplate reader. FRET signal was measured by excitation at 340 nm and emission at 520 nm for fluorescein and 490 nm for terbium. Fold change over DMSO was calculated using GraphPad Prism Software (La Jolla, Calif.) by calculating 520 nm/490 nm ratio. Graphs were plotted as fold change of FRET signal for compound treatment over DMSO-only control.

$$$$
CHEMBL197671
Actelion Java MolfileCreator 2.0

  0  0  0  0  0  0              0 V3000
M  V30 BEGIN CTAB
M  V30 COUNTS 35 38 0 0 0
M  V30 BEGIN ATOM
M  V30 1 F 3.8301 0.866 0.0 0
M  V30 2 C 4.3301 0.0 0.0 0
M  V30 3 F 5.1961 0.4999 0.0 0
M  V30 4 F 4.8301 -0.866 0.0 0
M  V30 5 C 3.4641 -0.5 0.0 0
M  V30 6 C 2.598 0.0 0.0 0
M  V30 7 C 3.4641 -1.4999 0.0 0
M  V30 8 C 1.732 -0.5 0.0 0
M  V30 9 C 2.598 -2.0 0.0 0
M  V30 10 O 0.866 0.0 0.0 0
M  V30 11 C 1.732 -1.5 0.0 0
M  V30 12 C 0.0 -0.5 0.0 0
M  V30 13 C -0.9135 -0.0932 0.0 0
M  V30 14 C -0.1045 -1.4945 0.0 0
M  V30 15 N -1.5826 -0.8364 0.0 0
M  V30 16 C -1.1214 0.8848 0.0 0
M  V30 17 C -1.0826 -1.7024 0.0 0
M  V30 18 C 0.5646 -2.2376 0.0 0
M  V30 19 C -2.5771 -0.7318 0.0 0
M  V30 20 O -0.3783 1.554 0.0 0
M  V30 21 O -2.0725 1.1939 0.0 0
M  V30 22 C -1.3916 -2.6534 0.0 0
M  V30 23 C 0.2555 -3.1887 0.0 0
M  V30 24 C -2.9839 0.1816 0.0 0
M  V30 25 C -3.1649 -1.5408 0.0 0
M  V30 26 C -0.7225 -3.3966 0.0 0
M  V30 27 O 0.9247 -3.9318 0.0 0
M  V30 28 C -3.9784 0.2861 0.0 0
M  V30 29 C -4.1595 -1.4363 0.0 0
M  V30 30 C 1.9028 -3.7239 0.0 0
M  V30 31 C -4.5662 -0.5228 0.0 0
M  V30 32 C -5.5607 -0.4182 0.0 0
M  V30 33 C -5.6652 -1.4128 0.0 0
M  V30 34 C -6.5552 -0.3137 0.0 0
M  V30 35 C -5.4562 0.5762 0.0 0
M  V30 END ATOM
M  V30 BEGIN BOND
M  V30 1 1 1 2
M  V30 2 1 2 3
M  V30 3 1 2 4
M  V30 4 1 2 5
M  V30 5 2 5 6
M  V30 6 1 5 7
M  V30 7 1 6 8
M  V30 8 2 7 9
M  V30 9 1 8 10
M  V30 10 2 8 11
M  V30 11 1 10 12
M  V30 12 2 12 13
M  V30 13 1 12 14
M  V30 14 1 13 15
M  V30 15 1 13 16
M  V30 16 2 14 17
M  V30 17 1 14 18
M  V30 18 1 15 19
M  V30 19 2 16 20
M  V30 20 1 16 21
M  V30 21 1 17 22
M  V30 22 2 18 23
M  V30 23 2 19 24
M  V30 24 1 19 25
M  V30 25 2 22 26
M  V30 26 1 23 27
M  V30 27 1 24 28
M  V30 28 2 25 29
M  V30 29 1 27 30
M  V30 30 2 28 31
M  V30 31 1 31 32
M  V30 32 1 32 33
M  V30 33 1 32 34
M  V30 34 1 32 35
M  V30 35 1 9 11
M  V30 36 1 15 17
M  V30 37 1 23 26
M  V30 38 1 29 31
M  V30 END BOND
M  V30 END CTAB
M  END
>  <Molecule ChEMBL ID>
CHEMBL197671

>  <Smiles>
COc1ccc2c(c1)c(Oc1cccc(C(F)(F)F)c1)c(C(=O)O)n2-c1ccc(C(C)(C)C)cc1

>  <IC50_nM>
39

>  <Assay Description>
Inhibitory concentration against human peroxisome proliferator activated receptor gamma in SPA assay

$$$$
CHEMBL238357
Actelion Java MolfileCreator 2.0

  0  0  0  0  0  0              0 V3000
M  V30 BEGIN CTAB
M  V30 COUNTS 38 41 0 0 0
M  V30 BEGIN ATOM
M  V30 1 Cl 6.5467 -3.4344 0.0 0
M  V30 2 C 6.0467 -2.5684 0.0 0
M  V30 3 C 5.0467 -2.5684 0.0 0
M  V30 4 C 6.5467 -1.7024 0.0 0
M  V30 5 C 4.5467 -1.7024 0.0 0
M  V30 6 C 6.0467 -0.8364 0.0 0
M  V30 7 C 5.0467 -0.8364 0.0 0
M  V30 8 C 3.5686 -1.4945 0.0 0
M  V30 9 N 4.3776 -0.0932 0.0 0
M  V30 10 C 3.4641 -0.5 0.0 0
M  V30 11 C 2.8254 -2.1636 0.0 0
M  V30 12 C 4.5855 0.8848 0.0 0
M  V30 13 C 2.598 0.0 0.0 0
M  V30 14 O 2.598 1.0 0.0 0
M  V30 15 N 1.732 -0.5 0.0 0
M  V30 16 C 0.866 0.0 0.0 0 CFG=1
M  V30 17 C 0.866 1.0 0.0 0
M  V30 18 C 0.0 -0.5 0.0 0
M  V30 19 C 1.732 1.4999 0.0 0
M  V30 20 C 0.0 1.4999 0.0 0
M  V30 21 C 1.732 2.4999 0.0 0
M  V30 22 C 0.0 2.4999 0.0 0
M  V30 23 F 2.598 2.9999 0.0 0
M  V30 24 C 0.866 2.9999 0.0 0
M  V30 25 O -0.866 2.9999 0.0 0
M  V30 26 C -1.732 2.4999 0.0 0
M  V30 27 C -2.598 2.9999 0.0 0
M  V30 28 C -1.732 1.4999 0.0 0
M  V30 29 C -3.4641 2.4999 0.0 0
M  V30 30 C -2.598 0.9999 0.0 0
M  V30 31 C -3.4641 1.4999 0.0 0
M  V30 32 C -4.3301 2.9999 0.0 0
M  V30 33 C -4.3301 0.9999 0.0 0
M  V30 34 C -5.1961 2.4999 0.0 0
M  V30 35 C -4.3301 0.0 0.0 0
M  V30 36 C -5.1961 -0.5 0.0 0
M  V30 37 O -6.0621 0.0 0.0 0
M  V30 38 O -5.1961 -1.5 0.0 0
M  V30 END ATOM
M  V30 BEGIN BOND
M  V30 1 1 1 2
M  V30 2 2 2 3
M  V30 3 1 2 4
M  V30 4 1 3 5
M  V30 5 2 4 6
M  V30 6 2 5 7
M  V30 7 1 5 8
M  V30 8 1 7 9
M  V30 9 2 8 10
M  V30 10 1 8 11
M  V30 11 1 9 12
M  V30 12 1 10 13
M  V30 13 2 13 14
M  V30 14 1 13 15
M  V30 15 1 15 16
M  V30 16 1 16 17
M  V30 17 1 16 18 CFG=3
M  V30 18 2 17 19
M  V30 19 1 17 20
M  V30 20 1 19 21
M  V30 21 2 20 22
M  V30 22 1 21 23
M  V30 23 2 21 24
M  V30 24 1 22 25
M  V30 25 1 25 26
M  V30 26 2 26 27
M  V30 27 1 26 28
M  V30 28 1 27 29
M  V30 29 2 28 30
M  V30 30 2 29 31
M  V30 31 1 29 32
M  V30 32 1 31 33
M  V30 33 1 32 34
M  V30 34 1 33 35
M  V30 35 1 35 36
M  V30 36 2 36 37
M  V30 37 1 36 38
M  V30 38 1 6 7
M  V30 39 1 9 10
M  V30 40 1 22 24
M  V30 41 1 30 31
M  V30 END BOND
M  V30 BEGIN COLLECTION
M  V30 MDLV30/STEABS ATOMS=(1 16)
M  V30 END COLLECTION
M  V30 END CTAB
M  END
>  <Molecule ChEMBL ID>
CHEMBL238357

>  <Smiles>
CCc1cc(Oc2cc(F)cc([C@@H](C)NC(=O)c3c(C)c4cc(Cl)ccc4n3C)c2)ccc1CCC(=O)O

>  <IC50_nM>
39

>  <Assay Description>
Displacement of [3H]2-methyl-2-(4-{3-{propyl-(5-pyridin-2-yl-thiophene-2-sulfonyl)-amino}-propyl}-phenoxy)-propionic acid from human PPARgamma

$$$$
CHEMBL3678162
Actelion Java MolfileCreator 2.0

  0  0  0  0  0  0              0 V3000
M  V30 BEGIN CTAB
M  V30 COUNTS 35 39 0 0 0
M  V30 BEGIN ATOM
M  V30 1 O 10.8811 -3.7748 0.0 0
M  V30 2 C 10.212 -3.0316 0.0 0
M  V30 3 O 10.521 -2.0806 0.0 0
M  V30 4 C 9.2338 -3.2395 0.0 0
M  V30 5 C 8.5647 -2.4964 0.0 0
M  V30 6 C 8.9248 -4.1906 0.0 0
M  V30 7 C 7.5865 -2.7043 0.0 0
M  V30 8 C 7.9466 -4.3985 0.0 0
M  V30 9 C 7.2775 -3.6554 0.0 0
M  V30 10 C 6.9174 -1.9612 0.0 0
M  V30 11 N 5.9392 -2.1691 0.0 0
M  V30 12 C 5.1961 -1.4999 0.0 0
M  V30 13 C 5.5325 -3.0826 0.0 0
M  V30 14 C 4.3301 -1.9999 0.0 0
M  V30 15 C 5.1961 -0.4999 0.0 0
M  V30 16 C 4.538 -2.9781 0.0 0
M  V30 17 C 6.0325 -3.9487 0.0 0
M  V30 18 C 3.4641 -1.5 0.0 0
M  V30 19 C 4.3301 0.0 0.0 0
M  V30 20 C 3.8689 -3.7212 0.0 0
M  V30 21 C 3.4641 -0.5 0.0 0
M  V30 22 C 2.598 0.0 0.0 0
M  V30 23 O 2.598 1.0 0.0 0
M  V30 24 N 1.732 -0.5 0.0 0
M  V30 25 C 0.866 0.0 0.0 0 CFG=2
M  V30 26 C 0.866 1.0 0.0 0
M  V30 27 C 0.0 -0.5 0.0 0
M  V30 28 C 1.732 1.4999 0.0 0
M  V30 29 C 0.0 1.4999 0.0 0
M  V30 30 C 1.732 2.5 0.0 0
M  V30 31 C 0.0 2.5 0.0 0
M  V30 32 C 0.866 3.0 0.0 0
M  V30 33 C 2.598 3.0 0.0 0
M  V30 34 C 3.598 3.0 0.0 0
M  V30 35 C 3.098 3.866 0.0 0
M  V30 END ATOM
M  V30 BEGIN BOND
M  V30 1 2 1 2
M  V30 2 1 2 3
M  V30 3 1 2 4
M  V30 4 2 4 5
M  V30 5 1 4 6
M  V30 6 1 5 7
M  V30 7 2 6 8
M  V30 8 2 7 9
M  V30 9 1 7 10
M  V30 10 1 10 11
M  V30 11 1 11 12
M  V30 12 1 11 13
M  V30 13 2 12 14
M  V30 14 1 12 15
M  V30 15 2 13 16
M  V30 16 1 13 17
M  V30 17 1 14 18
M  V30 18 2 15 19
M  V30 19 1 16 20
M  V30 20 2 18 21
M  V30 21 1 21 22
M  V30 22 2 22 23
M  V30 23 1 22 24
M  V30 24 1 24 25
M  V30 25 1 25 26
M  V30 26 1 25 27 CFG=1
M  V30 27 2 26 28
M  V30 28 1 26 29
M  V30 29 1 28 30
M  V30 30 2 29 31
M  V30 31 2 30 32
M  V30 32 1 30 33
M  V30 33 1 33 34
M  V30 34 1 33 35
M  V30 35 1 8 9
M  V30 36 1 14 16
M  V30 37 1 19 21
M  V30 38 1 31 32
M  V30 39 1 34 35
M  V30 END BOND
M  V30 BEGIN COLLECTION
M  V30 MDLV30/STEABS ATOMS=(1 25)
M  V30 END COLLECTION
M  V30 END CTAB
M  END
>  <Molecule ChEMBL ID>
CHEMBL3678162

>  <Smiles>
Cc1c(C)n(Cc2cccc(C(=O)O)c2)c2ccc(C(=O)N[C@@H](C)c3cccc(C4CC4)c3)cc12

>  <IC50_nM>
39

>  <Assay Description>
Lanthascreen Competitive Binding Assay: The assay was performed according to manufacturer protocol. A mixture of 5 nM GST-PPARG-LBD, 5 nM Tb-GST-antibody, 5 nM Fluormone Pan- PPAR Green, and serial dilutions of the experimental compound, beginning at 10 ׬� downwards, was added to wells of black 384-well low- volume plates (Greiner) to a total volume of 18 xL. All dilutions were made in TR-FRET assay buffer C. DMSO at 2% final concentration was used as a no-ligand control. Experiment was performed in triplicate, and incubated for 2 hours in the dark prior to assay read in Perkin Elmer ViewLux ultra HTS microplate reader. FRET signal was measured by excitation at 340 nm and emission at 520 nm for fluorescein and 490 nm for terbium.

$$$$
CHEMBL3735765
Actelion Java MolfileCreator 2.0

  0  0  0  0  0  0              0 V3000
M  V30 BEGIN CTAB
M  V30 COUNTS 42 46 0 0 0
M  V30 BEGIN ATOM
M  V30 1 F 5.5621 0.866 0.0 0
M  V30 2 C 6.0621 0.0 0.0 0
M  V30 3 F 6.9282 0.4999 0.0 0
M  V30 4 F 6.5621 -0.866 0.0 0
M  V30 5 C 5.1961 -0.5 0.0 0
M  V30 6 C 4.3301 0.0 0.0 0
M  V30 7 C 5.1961 -1.4999 0.0 0
M  V30 8 C 3.4641 -0.5 0.0 0
M  V30 9 C 4.3301 -1.9999 0.0 0
M  V30 10 C 3.4641 -1.4999 0.0 0
M  V30 11 C 2.598 0.0 0.0 0 CFG=1
M  V30 12 N 1.732 -0.5 0.0 0
M  V30 13 C 2.598 1.0 0.0 0
M  V30 14 C 0.866 0.0 0.0 0
M  V30 15 O 0.866 1.0 0.0 0
M  V30 16 C 0.0 -0.5 0.0 0
M  V30 17 C 0.0 -1.4999 0.0 0
M  V30 18 C -0.866 0.0 0.0 0
M  V30 19 C -0.866 -1.9999 0.0 0
M  V30 20 C -1.732 -0.4999 0.0 0
M  V30 21 C -1.732 -1.4999 0.0 0
M  V30 22 C -1.0739 -2.9781 0.0 0
M  V30 23 N -2.4751 -2.1691 0.0 0
M  V30 24 C -2.0684 -3.0826 0.0 0
M  V30 25 C -0.4048 -3.7212 0.0 0
M  V30 26 C -3.4533 -1.9612 0.0 0
M  V30 27 C -2.5684 -3.9487 0.0 0
M  V30 28 C -4.1224 -2.7043 0.0 0
M  V30 29 C -5.1006 -2.4964 0.0 0
M  V30 30 C -3.8134 -3.6554 0.0 0
M  V30 31 C -5.7697 -3.2395 0.0 0
M  V30 32 C -4.4825 -4.3985 0.0 0
M  V30 33 C -5.4607 -4.1906 0.0 0
M  V30 34 C -6.1298 -4.9337 0.0 0
M  V30 35 C -7.108 -4.7258 0.0 0
M  V30 36 C -5.8208 -5.8848 0.0 0
M  V30 37 C -7.417 -3.7748 0.0 0
M  V30 38 C -7.7771 -5.469 0.0 0
M  V30 39 C -6.4899 -6.6279 0.0 0
M  V30 40 O -6.7478 -3.0316 0.0 0
M  V30 41 O -8.3951 -3.5669 0.0 0
M  V30 42 C -7.4681 -6.42 0.0 0
M  V30 END ATOM
M  V30 BEGIN BOND
M  V30 1 1 1 2
M  V30 2 1 2 3
M  V30 3 1 2 4
M  V30 4 1 2 5
M  V30 5 2 5 6
M  V30 6 1 5 7
M  V30 7 1 6 8
M  V30 8 2 7 9
M  V30 9 2 8 10
M  V30 10 1 8 11
M  V30 11 1 11 12
M  V30 12 1 11 13 CFG=1
M  V30 13 1 12 14
M  V30 14 2 14 15
M  V30 15 1 14 16
M  V30 16 2 16 17
M  V30 17 1 16 18
M  V30 18 1 17 19
M  V30 19 2 18 20
M  V30 20 2 19 21
M  V30 21 1 19 22
M  V30 22 1 21 23
M  V30 23 2 22 24
M  V30 24 1 22 25
M  V30 25 1 23 26
M  V30 26 1 24 27
M  V30 27 1 26 28
M  V30 28 2 28 29
M  V30 29 1 28 30
M  V30 30 1 29 31
M  V30 31 2 30 32
M  V30 32 2 31 33
M  V30 33 1 33 34
M  V30 34 2 34 35
M  V30 35 1 34 36
M  V30 36 1 35 37
M  V30 37 1 35 38
M  V30 38 2 36 39
M  V30 39 2 37 40
M  V30 40 1 37 41
M  V30 41 2 38 42
M  V30 42 1 9 10
M  V30 43 1 20 21
M  V30 44 1 23 24
M  V30 45 1 32 33
M  V30 46 1 39 42
M  V30 END BOND
M  V30 BEGIN COLLECTION
M  V30 MDLV30/STEABS ATOMS=(1 11)
M  V30 END COLLECTION
M  V30 END CTAB
M  END
>  <Molecule ChEMBL ID>
CHEMBL3735765

>  <Smiles>
Cc1c(C)n(Cc2ccc(-c3ccccc3C(=O)O)cc2)c2ccc(C(=O)N[C@@H](C)c3cccc(C(F)(F)F)c3)cc12

>  <IC50_nM>
39

>  <Assay Description>
Binding affinity to GST-tagged PPAR-gamma-LBD (unknown origin) after 2 hrs by Lantha screen assay using fluormone Pan-PPAR green probe

$$$$
CHEMBL3398446
Actelion Java MolfileCreator 2.0

  0  0  0  0  0  0              0 V3000
M  V30 BEGIN CTAB
M  V30 COUNTS 40 44 0 0 0
M  V30 BEGIN ATOM
M  V30 1 F 10.9179 -2.744 0.0 0
M  V30 2 C 10.8133 -3.7385 0.0 0
M  V30 3 F 11.8079 -3.8431 0.0 0
M  V30 4 F 10.7088 -4.7331 0.0 0
M  V30 5 C 9.8188 -3.634 0.0 0
M  V30 6 N 9.4121 -2.7205 0.0 0
M  V30 7 C 9.231 -4.443 0.0 0
M  V30 8 C 8.4176 -2.6159 0.0 0
M  V30 9 C 8.2365 -4.3385 0.0 0
M  V30 10 N 7.8298 -3.4249 0.0 0
M  V30 11 N 8.0108 -1.7024 0.0 0
M  V30 12 C 8.5108 -0.8364 0.0 0
M  V30 13 C 7.0327 -1.4945 0.0 0
M  V30 14 C 7.8417 -0.0932 0.0 0 CFG=1
M  V30 15 C 6.9282 -0.5 0.0 0 CFG=2
M  V30 16 C 8.0496 0.8848 0.0 0
M  V30 17 C 6.0621 0.0 0.0 0
M  V30 18 O 9.0007 1.1939 0.0 0
M  V30 19 O 7.3065 1.554 0.0 0
M  V30 20 C 5.1961 -0.5 0.0 0
M  V30 21 C 4.3301 0.0 0.0 0
M  V30 22 C 5.1961 -1.4999 0.0 0
M  V30 23 C 3.4641 -0.5 0.0 0
M  V30 24 C 4.3301 -1.9999 0.0 0
M  V30 25 O 2.598 0.0 0.0 0
M  V30 26 C 3.4641 -1.4999 0.0 0
M  V30 27 C 1.732 -0.5 0.0 0
M  V30 28 C 0.866 0.0 0.0 0
M  V30 29 C 0.0 -0.5 0.0 0
M  V30 30 N -0.9135 -0.0932 0.0 0
M  V30 31 C -0.1045 -1.4945 0.0 0
M  V30 32 C -1.5826 -0.8364 0.0 0
M  V30 33 O -1.0826 -1.7024 0.0 0
M  V30 34 C 0.6386 -2.1636 0.0 0
M  V30 35 C -2.5771 -0.7318 0.0 0
M  V30 36 C -2.9839 0.1816 0.0 0
M  V30 37 C -3.1649 -1.5408 0.0 0
M  V30 38 C -3.9784 0.2861 0.0 0
M  V30 39 C -4.1595 -1.4363 0.0 0
M  V30 40 C -4.5662 -0.5228 0.0 0
M  V30 END ATOM
M  V30 BEGIN BOND
M  V30 1 1 1 2
M  V30 2 1 2 3
M  V30 3 1 2 4
M  V30 4 1 2 5
M  V30 5 2 5 6
M  V30 6 1 5 7
M  V30 7 1 6 8
M  V30 8 2 7 9
M  V30 9 2 8 10
M  V30 10 1 8 11
M  V30 11 1 11 12
M  V30 12 1 11 13
M  V30 13 1 12 14
M  V30 14 1 13 15
M  V30 15 1 14 16 CFG=1
M  V30 16 1 15 17 CFG=1
M  V30 17 2 16 18
M  V30 18 1 16 19
M  V30 19 1 17 20
M  V30 20 2 20 21
M  V30 21 1 20 22
M  V30 22 1 21 23
M  V30 23 2 22 24
M  V30 24 1 23 25
M  V30 25 2 23 26
M  V30 26 1 25 27
M  V30 27 1 27 28
M  V30 28 1 28 29
M  V30 29 1 29 30
M  V30 30 2 29 31
M  V30 31 2 30 32
M  V30 32 1 31 33
M  V30 33 1 31 34
M  V30 34 1 32 35
M  V30 35 2 35 36
M  V30 36 1 35 37
M  V30 37 1 36 38
M  V30 38 2 37 39
M  V30 39 2 38 40
M  V30 40 1 9 10
M  V30 41 1 14 15
M  V30 42 1 24 26
M  V30 43 1 32 33
M  V30 44 1 39 40
M  V30 END BOND
M  V30 BEGIN COLLECTION
M  V30 MDLV30/STEABS ATOMS=(2 14 15)
M  V30 END COLLECTION
M  V30 END CTAB
M  END
>  <Molecule ChEMBL ID>
CHEMBL3398446

>  <Smiles>
Cc1oc(-c2ccccc2)nc1CCOc1cccc(C[C@@H]2CN(c3nccc(C(F)(F)F)n3)C[C@@H]2C(=O)O)c1

>  <IC50_nM>
40

>  <Assay Description>
Binding affinity to PPARgamma (unknown origin) using fluorescein-tagged dual PPARalpha/gamma activator by homogeneous fluorescence polarization binding assay

$$$$
CHEMBL255389
Actelion Java MolfileCreator 2.0

  0  0  0  0  0  0              0 V3000
M  V30 BEGIN CTAB
M  V30 COUNTS 40 44 0 0 0
M  V30 BEGIN ATOM
M  V30 1 O 6.687 -2.3319 0.0 0
M  V30 2 C 7.187 -1.4659 0.0 0
M  V30 3 N 8.1529 -1.2071 0.0 0
M  V30 4 C 6.9282 -0.5 0.0 0 CFG=2
M  V30 5 C 9.0189 -1.7071 0.0 0
M  V30 6 C 7.8941 -0.2411 0.0 0 CFG=1
M  V30 7 C 6.0621 0.0 0.0 0
M  V30 8 C 9.0189 -2.7071 0.0 0
M  V30 9 C 9.8849 -1.2071 0.0 0
M  V30 10 C 8.3941 0.6248 0.0 0
M  V30 11 C 5.1961 -0.5 0.0 0
M  V30 12 C 9.8849 -3.2071 0.0 0
M  V30 13 C 10.751 -1.7071 0.0 0
M  V30 14 O 9.3941 0.6248 0.0 0
M  V30 15 O 7.8941 1.4908 0.0 0
M  V30 16 C 4.3301 0.0 0.0 0
M  V30 17 C 5.1961 -1.4999 0.0 0
M  V30 18 C 10.751 -2.7071 0.0 0
M  V30 19 C 3.4641 -0.5 0.0 0
M  V30 20 C 4.3301 -1.9999 0.0 0
M  V30 21 C 11.617 -3.2071 0.0 0
M  V30 22 O 2.598 0.0 0.0 0
M  V30 23 C 3.4641 -1.4999 0.0 0
M  V30 24 C 12.117 -2.341 0.0 0
M  V30 25 C 12.483 -3.7071 0.0 0
M  V30 26 C 11.117 -4.0731 0.0 0
M  V30 27 C 1.732 -0.5 0.0 0
M  V30 28 C 0.866 0.0 0.0 0
M  V30 29 C 0.0 -0.5 0.0 0
M  V30 30 N -0.9135 -0.0932 0.0 0
M  V30 31 C -0.1045 -1.4945 0.0 0
M  V30 32 C -1.5826 -0.8364 0.0 0
M  V30 33 O -1.0826 -1.7024 0.0 0
M  V30 34 C 0.6386 -2.1636 0.0 0
M  V30 35 C -2.5771 -0.7318 0.0 0
M  V30 36 C -2.9839 0.1816 0.0 0
M  V30 37 C -3.1649 -1.5408 0.0 0
M  V30 38 C -3.9784 0.2861 0.0 0
M  V30 39 C -4.1595 -1.4363 0.0 0
M  V30 40 C -4.5662 -0.5228 0.0 0
M  V30 END ATOM
M  V30 BEGIN BOND
M  V30 1 2 1 2
M  V30 2 1 2 3
M  V30 3 1 2 4
M  V30 4 1 3 5
M  V30 5 1 3 6
M  V30 6 1 4 7 CFG=1
M  V30 7 2 5 8
M  V30 8 1 5 9
M  V30 9 1 6 10 CFG=1
M  V30 10 1 7 11
M  V30 11 1 8 12
M  V30 12 2 9 13
M  V30 13 2 10 14
M  V30 14 1 10 15
M  V30 15 2 11 16
M  V30 16 1 11 17
M  V30 17 2 12 18
M  V30 18 1 16 19
M  V30 19 2 17 20
M  V30 20 1 18 21
M  V30 21 1 19 22
M  V30 22 2 19 23
M  V30 23 1 21 24
M  V30 24 1 21 25
M  V30 25 1 21 26
M  V30 26 1 22 27
M  V30 27 1 27 28
M  V30 28 1 28 29
M  V30 29 1 29 30
M  V30 30 2 29 31
M  V30 31 2 30 32
M  V30 32 1 31 33
M  V30 33 1 31 34
M  V30 34 1 32 35
M  V30 35 2 35 36
M  V30 36 1 35 37
M  V30 37 1 36 38
M  V30 38 2 37 39
M  V30 39 2 38 40
M  V30 40 1 4 6
M  V30 41 1 13 18
M  V30 42 1 20 23
M  V30 43 1 32 33
M  V30 44 1 39 40
M  V30 END BOND
M  V30 BEGIN COLLECTION
M  V30 MDLV30/STEABS ATOMS=(2 4 6)
M  V30 END COLLECTION
M  V30 END CTAB
M  END
>  <Molecule ChEMBL ID>
CHEMBL255389

>  <Smiles>
Cc1oc(-c2ccccc2)nc1CCOc1cccc(C[C@@H]2C(=O)N(c3ccc(C(C)(C)C)cc3)[C@@H]2C(=O)O)c1

>  <IC50_nM>
40

>  <Assay Description>
Inhibition of PPARgamma

$$$$
CHEMBL3695788
Actelion Java MolfileCreator 2.0

  0  0  0  0  0  0              0 V3000
M  V30 BEGIN CTAB
M  V30 COUNTS 38 42 0 0 0
M  V30 BEGIN ATOM
M  V30 1 Br 6.0621 -1.9999 0.0 0
M  V30 2 C 5.1961 -1.4999 0.0 0
M  V30 3 C 5.1961 -0.5 0.0 0
M  V30 4 C 4.3301 -1.9999 0.0 0
M  V30 5 C 4.3301 0.0 0.0 0
M  V30 6 C 3.4641 -1.5 0.0 0
M  V30 7 C 3.4641 -0.5 0.0 0
M  V30 8 C 2.598 0.0 0.0 0 CFG=1
M  V30 9 N 1.732 -0.5 0.0 0
M  V30 10 C 2.598 1.0 0.0 0
M  V30 11 C 0.866 0.0 0.0 0
M  V30 12 O 0.866 1.0 0.0 0
M  V30 13 C 0.0 -0.5 0.0 0
M  V30 14 C 0.0 -1.4999 0.0 0
M  V30 15 C -0.866 0.0 0.0 0
M  V30 16 C -0.866 -1.9999 0.0 0
M  V30 17 C -1.732 -0.4999 0.0 0
M  V30 18 C -1.732 -1.4999 0.0 0
M  V30 19 C -1.0739 -2.9781 0.0 0
M  V30 20 N -2.4751 -2.1691 0.0 0
M  V30 21 C -2.0684 -3.0826 0.0 0
M  V30 22 C -0.4048 -3.7212 0.0 0
M  V30 23 C -3.4533 -1.9612 0.0 0
M  V30 24 C -2.5684 -3.9487 0.0 0
M  V30 25 C -4.1224 -2.7043 0.0 0
M  V30 26 C -5.1006 -2.4964 0.0 0
M  V30 27 C -3.8134 -3.6554 0.0 0
M  V30 28 C -5.7697 -3.2395 0.0 0
M  V30 29 C -4.4825 -4.3985 0.0 0
M  V30 30 C -5.4607 -4.1906 0.0 0
M  V30 31 C -6.1298 -4.9337 0.0 0
M  V30 32 C -7.108 -4.7258 0.0 0
M  V30 33 C -5.8208 -5.8848 0.0 0
M  V30 34 C -7.417 -3.7748 0.0 0
M  V30 35 C -7.7771 -5.469 0.0 0
M  V30 36 C -6.4899 -6.6279 0.0 0
M  V30 37 N -7.726 -2.8237 0.0 0
M  V30 38 C -7.4681 -6.42 0.0 0
M  V30 END ATOM
M  V30 BEGIN BOND
M  V30 1 1 1 2
M  V30 2 2 2 3
M  V30 3 1 2 4
M  V30 4 1 3 5
M  V30 5 2 4 6
M  V30 6 2 5 7
M  V30 7 1 7 8
M  V30 8 1 8 9
M  V30 9 1 8 10 CFG=1
M  V30 10 1 9 11
M  V30 11 2 11 12
M  V30 12 1 11 13
M  V30 13 2 13 14
M  V30 14 1 13 15
M  V30 15 1 14 16
M  V30 16 2 15 17
M  V30 17 2 16 18
M  V30 18 1 16 19
M  V30 19 1 18 20
M  V30 20 2 19 21
M  V30 21 1 19 22
M  V30 22 1 20 23
M  V30 23 1 21 24
M  V30 24 1 23 25
M  V30 25 2 25 26
M  V30 26 1 25 27
M  V30 27 1 26 28
M  V30 28 2 27 29
M  V30 29 2 28 30
M  V30 30 1 30 31
M  V30 31 2 31 32
M  V30 32 1 31 33
M  V30 33 1 32 34
M  V30 34 1 32 35
M  V30 35 2 33 36
M  V30 36 3 34 37
M  V30 37 2 35 38
M  V30 38 1 6 7
M  V30 39 1 17 18
M  V30 40 1 20 21
M  V30 41 1 29 30
M  V30 42 1 36 38
M  V30 END BOND
M  V30 BEGIN COLLECTION
M  V30 MDLV30/STEABS ATOMS=(1 8)
M  V30 END COLLECTION
M  V30 END CTAB
M  END
>  <Molecule ChEMBL ID>
CHEMBL3695788

>  <Smiles>
Cc1c(C)n(Cc2ccc(-c3ccccc3C#N)cc2)c2ccc(C(=O)N[C@@H](C)c3ccc(Br)cc3)cc12

>  <IC50_nM>
40

>  <Assay Description>
Lanthascreen Competitive Binding Assay: The assay was performed according to manufacturer protocol. A mixture of nM GST-PPARG-LBD, 5 nM Tb-GST-antibody, 5 nM Fluormone Pan-PPAR Green, and serial dilutions of the experimental compound, beginning at 10 ׬M downwards, was added to wells of black 384-well low-volume plates (Greiner) to a total volume of 18 ׬L. All dilutions were made in TR-FRET assay buffer C. DMSO at 2% final concentration was used as a no-ligand control. Experiment was performed in triplicate, and incubated for 2 hours in the dark prior to assay read in Perkin Elmer ViewLux ultra HTS microplate reader. FRET signal was measured by excitation at 340 nm and emission at 520 nm for fluorescein and 490 nm for terbium. Fold change over DMSO was calculated using GraphPad Prism Software (La Jolla, Calif.) by calculating 520 nm/490 nm ratio. Graphs were plotted as fold change of FRET signal for compound treatment over DMSO-only control.

$$$$
CHEMBL3699395
Actelion Java MolfileCreator 2.0

  0  0  0  0  0  0              0 V3000
M  V30 BEGIN CTAB
M  V30 COUNTS 41 45 0 0 0
M  V30 BEGIN ATOM
M  V30 1 O 11.8592 -3.5669 0.0 0
M  V30 2 C 10.8811 -3.7748 0.0 0
M  V30 3 O 10.212 -3.0316 0.0 0
M  V30 4 C 10.5721 -4.7258 0.0 0
M  V30 5 C 9.5939 -4.9337 0.0 0
M  V30 6 C 11.2412 -5.469 0.0 0
M  V30 7 C 8.9248 -4.1906 0.0 0
M  V30 8 C 9.2849 -5.8848 0.0 0
M  V30 9 C 10.9322 -6.42 0.0 0
M  V30 10 C 9.2338 -3.2395 0.0 0
M  V30 11 C 7.9466 -4.3985 0.0 0
M  V30 12 C 9.954 -6.6279 0.0 0
M  V30 13 C 8.5647 -2.4964 0.0 0
M  V30 14 C 7.2775 -3.6554 0.0 0
M  V30 15 C 7.5865 -2.7043 0.0 0
M  V30 16 C 6.9174 -1.9612 0.0 0
M  V30 17 N 5.9392 -2.1691 0.0 0
M  V30 18 C 5.1961 -1.4999 0.0 0
M  V30 19 C 5.5325 -3.0826 0.0 0
M  V30 20 C 4.3301 -1.9999 0.0 0
M  V30 21 C 5.1961 -0.4999 0.0 0
M  V30 22 C 4.538 -2.9781 0.0 0
M  V30 23 C 6.0325 -3.9487 0.0 0
M  V30 24 C 3.4641 -1.5 0.0 0
M  V30 25 C 4.3301 0.0 0.0 0
M  V30 26 C 3.8689 -3.7212 0.0 0
M  V30 27 C 3.4641 -0.5 0.0 0
M  V30 28 C 2.598 0.0 0.0 0
M  V30 29 O 2.598 1.0 0.0 0
M  V30 30 N 1.732 -0.5 0.0 0
M  V30 31 C 0.866 0.0 0.0 0 CFG=2
M  V30 32 C 0.866 1.0 0.0 0
M  V30 33 C 0.0 -0.5 0.0 0
M  V30 34 C 1.732 1.5 0.0 0
M  V30 35 C 0.0 1.4999 0.0 0
M  V30 36 C 1.732 2.5 0.0 0
M  V30 37 C 0.0 2.4999 0.0 0
M  V30 38 C 0.866 3.0 0.0 0
M  V30 39 C 0.866 3.9999 0.0 0
M  V30 40 C 1.732 4.5 0.0 0
M  V30 41 C 1.732 5.5 0.0 0
M  V30 END ATOM
M  V30 BEGIN BOND
M  V30 1 2 1 2
M  V30 2 1 2 3
M  V30 3 1 2 4
M  V30 4 2 4 5
M  V30 5 1 4 6
M  V30 6 1 5 7
M  V30 7 1 5 8
M  V30 8 2 6 9
M  V30 9 2 7 10
M  V30 10 1 7 11
M  V30 11 2 8 12
M  V30 12 1 10 13
M  V30 13 2 11 14
M  V30 14 2 13 15
M  V30 15 1 15 16
M  V30 16 1 16 17
M  V30 17 1 17 18
M  V30 18 1 17 19
M  V30 19 2 18 20
M  V30 20 1 18 21
M  V30 21 2 19 22
M  V30 22 1 19 23
M  V30 23 1 20 24
M  V30 24 2 21 25
M  V30 25 1 22 26
M  V30 26 2 24 27
M  V30 27 1 27 28
M  V30 28 2 28 29
M  V30 29 1 28 30
M  V30 30 1 30 31
M  V30 31 1 31 32
M  V30 32 1 31 33 CFG=1
M  V30 33 2 32 34
M  V30 34 1 32 35
M  V30 35 1 34 36
M  V30 36 2 35 37
M  V30 37 2 36 38
M  V30 38 1 38 39
M  V30 39 1 39 40
M  V30 40 1 40 41
M  V30 41 1 9 12
M  V30 42 1 14 15
M  V30 43 1 20 22
M  V30 44 1 25 27
M  V30 45 1 37 38
M  V30 END BOND
M  V30 BEGIN COLLECTION
M  V30 MDLV30/STEABS ATOMS=(1 31)
M  V30 END COLLECTION
M  V30 END CTAB
M  END
>  <Molecule ChEMBL ID>
CHEMBL3699395

>  <Smiles>
CCCc1ccc([C@H](C)NC(=O)c2ccc3c(c2)c(C)c(C)n3Cc2ccc(-c3ccccc3C(=O)O)cc2)cc1

>  <IC50_nM>
40

>  <Assay Description>
Lanthascreen Competitive Binding Assay: The assay was performed according to manufacturer protocol. A mixture of nM GST-PPARG-LBD, 5 nM Tb-GST-antibody, 5 nM Fluormone Pan-PPAR Green, and serial dilutions of the experimental compound, beginning at 10 ׬M downwards, was added to wells of black 384-well low-volume plates (Greiner) to a total volume of 18 ׬L. All dilutions were made in TR-FRET assay buffer C. DMSO at 2% final concentration was used as a no-ligand control. Experiment was performed in triplicate, and incubated for 2 hours in the dark prior to assay read in Perkin Elmer ViewLux ultra HTS microplate reader. FRET signal was measured by excitation at 340 nm and emission at 520 nm for fluorescein and 490 nm for terbium. Fold change over DMSO was calculated using GraphPad Prism Software (La Jolla, Calif.) by calculating 520 nm/490 nm ratio. Graphs were plotted as fold change of FRET signal for compound treatment over DMSO-only control.

$$$$
CHEMBL2338473
Actelion Java MolfileCreator 2.0

  0  0  0  0  0  0              0 V3000
M  V30 BEGIN CTAB
M  V30 COUNTS 30 33 0 0 0
M  V30 BEGIN ATOM
M  V30 1 Cl 2.598 2.25 0.0 0
M  V30 2 C 3.8971 1.5 0.0 0
M  V30 3 C 3.8971 0.0 0.0 0
M  V30 4 C 5.1961 2.25 0.0 0
M  V30 5 S 2.598 -0.75 0.0 0
M  V30 6 C 5.1961 -0.75 0.0 0
M  V30 7 C 6.4951 1.5 0.0 0
M  V30 8 O 1.848 -2.049 0.0 0
M  V30 9 O 3.348 -2.049 0.0 0
M  V30 10 N 1.299 0.0 0.0 0
M  V30 11 C 6.4951 0.0 0.0 0
M  V30 12 Cl 7.7942 2.25 0.0 0
M  V30 13 C 0.0 -0.75 0.0 0
M  V30 14 C -1.299 0.0 0.0 0
M  V30 15 C 0.0 -2.25 0.0 0
M  V30 16 C -2.598 -0.75 0.0 0
M  V30 17 C -1.299 -3.0 0.0 0
M  V30 18 F -3.8971 0.0 0.0 0
M  V30 19 C -2.598 -2.25 0.0 0
M  V30 20 O -3.8971 -3.0 0.0 0
M  V30 21 C -3.8971 -4.5 0.0 0
M  V30 22 C -5.1961 -5.25 0.0 0
M  V30 23 C -2.598 -5.25 0.0 0
M  V30 24 N -5.1961 -6.75 0.0 0
M  V30 25 C -2.598 -6.75 0.0 0
M  V30 26 C -3.8971 -7.5 0.0 0
M  V30 27 C -1.299 -7.5 0.0 0
M  V30 28 C -3.8971 -9.0 0.0 0
M  V30 29 C -1.299 -9.0 0.0 0
M  V30 30 C -2.598 -9.75 0.0 0
M  V30 END ATOM
M  V30 BEGIN BOND
M  V30 1 1 1 2
M  V30 2 2 2 3
M  V30 3 1 2 4
M  V30 4 1 3 5
M  V30 5 1 3 6
M  V30 6 2 4 7
M  V30 7 2 5 8
M  V30 8 2 5 9
M  V30 9 1 5 10
M  V30 10 2 6 11
M  V30 11 1 7 12
M  V30 12 1 10 13
M  V30 13 2 13 14
M  V30 14 1 13 15
M  V30 15 1 14 16
M  V30 16 2 15 17
M  V30 17 1 16 18
M  V30 18 2 16 19
M  V30 19 1 19 20
M  V30 20 1 20 21
M  V30 21 1 21 22
M  V30 22 2 21 23
M  V30 23 2 22 24
M  V30 24 1 23 25
M  V30 25 1 24 26
M  V30 26 2 25 27
M  V30 27 2 26 28
M  V30 28 1 27 29
M  V30 29 1 28 30
M  V30 30 1 7 11
M  V30 31 1 17 19
M  V30 32 1 25 26
M  V30 33 2 29 30
M  V30 END BOND
M  V30 END CTAB
M  END
>  <Molecule ChEMBL ID>
CHEMBL2338473

>  <Smiles>
O=S(=O)(Nc1ccc(Oc2cnc3ccccc3c2)c(F)c1)c1ccc(Cl)cc1Cl

>  <IC50_nM>
40

>  <Assay Description>
Displacement of [3H]-rosiglitazone from GST-tagged PPARgammaLBD (unknown origin) after 1 hr by scintillation proximity assay

$$$$
CHEMBL411118
Actelion Java MolfileCreator 2.0

  0  0  0  0  0  0              0 V3000
M  V30 BEGIN CTAB
M  V30 COUNTS 38 42 0 0 0
M  V30 BEGIN ATOM
M  V30 1 O 4.355 -3.7071 0.0 0
M  V30 2 C 5.355 -3.7071 0.0 0
M  V30 3 N 6.0621 -4.4142 0.0 0
M  V30 4 C 6.0621 -3.0 0.0 0 CFG=2
M  V30 5 C 6.0621 -5.4142 0.0 0
M  V30 6 C 6.7692 -3.7071 0.0 0 CFG=1
M  V30 7 C 6.0621 -1.9999 0.0 0
M  V30 8 C 5.1961 -5.9142 0.0 0
M  V30 9 C 6.9282 -5.9142 0.0 0
M  V30 10 C 7.7692 -3.7071 0.0 0
M  V30 11 C 5.1961 -1.4999 0.0 0
M  V30 12 C 5.1961 -6.9142 0.0 0
M  V30 13 C 6.9282 -6.9142 0.0 0
M  V30 14 O 8.2692 -4.5731 0.0 0
M  V30 15 O 8.2692 -2.841 0.0 0
M  V30 16 C 5.1961 -0.5 0.0 0
M  V30 17 C 4.3301 -1.9999 0.0 0
M  V30 18 C 6.0621 -7.4142 0.0 0
M  V30 19 C 4.3301 0.0 0.0 0
M  V30 20 C 3.4641 -1.5 0.0 0
M  V30 21 O 6.0621 -8.4142 0.0 0
M  V30 22 C 3.4641 -0.5 0.0 0
M  V30 23 C 6.9282 -8.9142 0.0 0
M  V30 24 O 2.598 0.0 0.0 0
M  V30 25 C 1.732 -0.5 0.0 0
M  V30 26 C 0.866 0.0 0.0 0
M  V30 27 C 0.0 -0.5 0.0 0
M  V30 28 N -0.9135 -0.0932 0.0 0
M  V30 29 C -0.1045 -1.4945 0.0 0
M  V30 30 C -1.5826 -0.8364 0.0 0
M  V30 31 O -1.0826 -1.7024 0.0 0
M  V30 32 C 0.6386 -2.1636 0.0 0
M  V30 33 C -2.5771 -0.7318 0.0 0
M  V30 34 C -2.9839 0.1816 0.0 0
M  V30 35 C -3.1649 -1.5408 0.0 0
M  V30 36 C -3.9784 0.2861 0.0 0
M  V30 37 C -4.1595 -1.4363 0.0 0
M  V30 38 C -4.5662 -0.5228 0.0 0
M  V30 END ATOM
M  V30 BEGIN BOND
M  V30 1 2 1 2
M  V30 2 1 2 3
M  V30 3 1 2 4
M  V30 4 1 3 5
M  V30 5 1 3 6
M  V30 6 1 4 7 CFG=1
M  V30 7 2 5 8
M  V30 8 1 5 9
M  V30 9 1 6 10 CFG=1
M  V30 10 1 7 11
M  V30 11 1 8 12
M  V30 12 2 9 13
M  V30 13 2 10 14
M  V30 14 1 10 15
M  V30 15 2 11 16
M  V30 16 1 11 17
M  V30 17 2 12 18
M  V30 18 1 16 19
M  V30 19 2 17 20
M  V30 20 1 18 21
M  V30 21 2 19 22
M  V30 22 1 21 23
M  V30 23 1 22 24
M  V30 24 1 24 25
M  V30 25 1 25 26
M  V30 26 1 26 27
M  V30 27 1 27 28
M  V30 28 2 27 29
M  V30 29 2 28 30
M  V30 30 1 29 31
M  V30 31 1 29 32
M  V30 32 1 30 33
M  V30 33 2 33 34
M  V30 34 1 33 35
M  V30 35 1 34 36
M  V30 36 2 35 37
M  V30 37 2 36 38
M  V30 38 1 4 6
M  V30 39 1 13 18
M  V30 40 1 20 22
M  V30 41 1 30 31
M  V30 42 1 37 38
M  V30 END BOND
M  V30 BEGIN COLLECTION
M  V30 MDLV30/STEABS ATOMS=(2 4 6)
M  V30 END COLLECTION
M  V30 END CTAB
M  END
>  <Molecule ChEMBL ID>
CHEMBL411118

>  <Smiles>
COc1ccc(N2C(=O)[C@@H](Cc3ccc(OCCc4nc(-c5ccccc5)oc4C)cc3)[C@H]2C(=O)O)cc1

>  <IC50_nM>
40

>  <Assay Description>
Inhibition of PPARgamma

$$$$
CHEMBL3699389
Actelion Java MolfileCreator 2.0

  0  0  0  0  0  0              0 V3000
M  V30 BEGIN CTAB
M  V30 COUNTS 44 49 0 0 0
M  V30 BEGIN ATOM
M  V30 1 O 12.6412 -1.878 0.0 0
M  V30 2 C 11.8321 -2.4658 0.0 0
M  V30 3 O 10.8811 -2.1567 0.0 0
M  V30 4 N 11.8321 -3.4658 0.0 0
M  V30 5 N 10.2933 -2.9658 0.0 0
M  V30 6 C 10.8811 -3.7748 0.0 0
M  V30 7 C 10.5721 -4.7258 0.0 0
M  V30 8 C 9.5939 -4.9337 0.0 0
M  V30 9 C 11.2412 -5.469 0.0 0
M  V30 10 C 8.9248 -4.1906 0.0 0
M  V30 11 C 9.2849 -5.8848 0.0 0
M  V30 12 C 10.9322 -6.42 0.0 0
M  V30 13 C 9.2338 -3.2395 0.0 0
M  V30 14 C 7.9466 -4.3985 0.0 0
M  V30 15 C 9.954 -6.6279 0.0 0
M  V30 16 C 8.5647 -2.4964 0.0 0
M  V30 17 C 7.2775 -3.6554 0.0 0
M  V30 18 C 7.5865 -2.7043 0.0 0
M  V30 19 C 6.9174 -1.9612 0.0 0
M  V30 20 N 5.9392 -2.1691 0.0 0
M  V30 21 C 5.1961 -1.4999 0.0 0
M  V30 22 C 5.5325 -3.0826 0.0 0
M  V30 23 C 4.3301 -1.9999 0.0 0
M  V30 24 C 5.1961 -0.4999 0.0 0
M  V30 25 C 4.538 -2.9781 0.0 0
M  V30 26 C 6.0325 -3.9487 0.0 0
M  V30 27 C 3.4641 -1.5 0.0 0
M  V30 28 C 4.3301 0.0 0.0 0
M  V30 29 C 3.8689 -3.7212 0.0 0
M  V30 30 C 3.4641 -0.5 0.0 0
M  V30 31 C 2.598 0.0 0.0 0
M  V30 32 O 2.598 1.0 0.0 0
M  V30 33 N 1.732 -0.5 0.0 0
M  V30 34 C 0.866 0.0 0.0 0 CFG=2
M  V30 35 C 0.866 1.0 0.0 0
M  V30 36 C 0.0 -0.5 0.0 0
M  V30 37 C 1.732 1.5 0.0 0
M  V30 38 C 0.0 1.4999 0.0 0
M  V30 39 C 1.732 2.5 0.0 0
M  V30 40 C 0.0 2.5 0.0 0
M  V30 41 C 0.866 2.9999 0.0 0
M  V30 42 C 2.598 3.0 0.0 0
M  V30 43 C 3.4641 2.5 0.0 0
M  V30 44 C 2.598 4.0 0.0 0
M  V30 END ATOM
M  V30 BEGIN BOND
M  V30 1 2 1 2
M  V30 2 1 2 3
M  V30 3 1 2 4
M  V30 4 1 3 5
M  V30 5 1 4 6
M  V30 6 1 6 7
M  V30 7 2 7 8
M  V30 8 1 7 9
M  V30 9 1 8 10
M  V30 10 1 8 11
M  V30 11 2 9 12
M  V30 12 2 10 13
M  V30 13 1 10 14
M  V30 14 2 11 15
M  V30 15 1 13 16
M  V30 16 2 14 17
M  V30 17 2 16 18
M  V30 18 1 18 19
M  V30 19 1 19 20
M  V30 20 1 20 21
M  V30 21 1 20 22
M  V30 22 2 21 23
M  V30 23 1 21 24
M  V30 24 2 22 25
M  V30 25 1 22 26
M  V30 26 1 23 27
M  V30 27 2 24 28
M  V30 28 1 25 29
M  V30 29 2 27 30
M  V30 30 1 30 31
M  V30 31 2 31 32
M  V30 32 1 31 33
M  V30 33 1 33 34
M  V30 34 1 34 35
M  V30 35 1 34 36 CFG=1
M  V30 36 2 35 37
M  V30 37 1 35 38
M  V30 38 1 37 39
M  V30 39 2 38 40
M  V30 40 2 39 41
M  V30 41 1 39 42
M  V30 42 1 42 43
M  V30 43 1 42 44
M  V30 44 2 5 6
M  V30 45 1 12 15
M  V30 46 1 17 18
M  V30 47 1 23 25
M  V30 48 1 28 30
M  V30 49 1 40 41
M  V30 END BOND
M  V30 BEGIN COLLECTION
M  V30 MDLV30/STEABS ATOMS=(1 34)
M  V30 END COLLECTION
M  V30 END CTAB
M  END
>  <Molecule ChEMBL ID>
CHEMBL3699389

>  <Smiles>
Cc1c(C)n(Cc2ccc(-c3ccccc3-c3noc(=O)[nH]3)cc2)c2ccc(C(=O)N[C@@H](C)c3cccc(C(C)C)c3)cc12

>  <IC50_nM>
40

>  <Assay Description>
Lanthascreen Competitive Binding Assay: The assay was performed according to manufacturer protocol. A mixture of nM GST-PPARG-LBD, 5 nM Tb-GST-antibody, 5 nM Fluormone Pan-PPAR Green, and serial dilutions of the experimental compound, beginning at 10 ׬M downwards, was added to wells of black 384-well low-volume plates (Greiner) to a total volume of 18 ׬L. All dilutions were made in TR-FRET assay buffer C. DMSO at 2% final concentration was used as a no-ligand control. Experiment was performed in triplicate, and incubated for 2 hours in the dark prior to assay read in Perkin Elmer ViewLux ultra HTS microplate reader. FRET signal was measured by excitation at 340 nm and emission at 520 nm for fluorescein and 490 nm for terbium. Fold change over DMSO was calculated using GraphPad Prism Software (La Jolla, Calif.) by calculating 520 nm/490 nm ratio. Graphs were plotted as fold change of FRET signal for compound treatment over DMSO-only control.

$$$$
CHEMBL3678155
Actelion Java MolfileCreator 2.0

  0  0  0  0  0  0              0 V3000
M  V30 BEGIN CTAB
M  V30 COUNTS 36 39 0 0 0
M  V30 BEGIN ATOM
M  V30 1 Cl 4.3301 0.9999 0.0 0
M  V30 2 C 4.3301 0.0 0.0 0
M  V30 3 C 3.4641 -0.5 0.0 0
M  V30 4 C 5.1961 -0.5 0.0 0
M  V30 5 C 3.4641 -1.5 0.0 0
M  V30 6 C 2.598 0.0 0.0 0 CFG=1
M  V30 7 C 5.1961 -1.5 0.0 0
M  V30 8 C 4.3301 -2.0 0.0 0
M  V30 9 N 1.732 -0.5 0.0 0
M  V30 10 C 2.598 1.0 0.0 0
M  V30 11 C 0.866 0.0 0.0 0
M  V30 12 O 0.866 1.0 0.0 0
M  V30 13 C 0.0 -0.5 0.0 0
M  V30 14 C 0.0 -1.4999 0.0 0
M  V30 15 C -0.866 0.0 0.0 0
M  V30 16 C -0.866 -1.9999 0.0 0
M  V30 17 C -1.732 -0.4999 0.0 0
M  V30 18 C -1.732 -1.4999 0.0 0
M  V30 19 C -1.0739 -2.9781 0.0 0
M  V30 20 N -2.4751 -2.1691 0.0 0
M  V30 21 C -2.0684 -3.0826 0.0 0
M  V30 22 C -0.4048 -3.7212 0.0 0
M  V30 23 C -3.4533 -1.9612 0.0 0
M  V30 24 C -2.5684 -3.9487 0.0 0
M  V30 25 C -4.1224 -2.7043 0.0 0
M  V30 26 C -5.1006 -2.4964 0.0 0
M  V30 27 C -3.8134 -3.6554 0.0 0
M  V30 28 C -5.7697 -3.2395 0.0 0
M  V30 29 C -4.4825 -4.3985 0.0 0
M  V30 30 O -6.7478 -3.0316 0.0 0
M  V30 31 C -5.4607 -4.1906 0.0 0
M  V30 32 C -7.417 -3.7748 0.0 0 CFG=2
M  V30 33 C -8.3951 -3.5669 0.0 0
M  V30 34 C -7.108 -4.7258 0.0 0
M  V30 35 O -8.7041 -2.6158 0.0 0
M  V30 36 O -9.0643 -4.31 0.0 0
M  V30 END ATOM
M  V30 BEGIN BOND
M  V30 1 1 1 2
M  V30 2 2 2 3
M  V30 3 1 2 4
M  V30 4 1 3 5
M  V30 5 1 3 6
M  V30 6 2 4 7
M  V30 7 2 5 8
M  V30 8 1 6 9
M  V30 9 1 6 10 CFG=1
M  V30 10 1 9 11
M  V30 11 2 11 12
M  V30 12 1 11 13
M  V30 13 2 13 14
M  V30 14 1 13 15
M  V30 15 1 14 16
M  V30 16 2 15 17
M  V30 17 2 16 18
M  V30 18 1 16 19
M  V30 19 1 18 20
M  V30 20 2 19 21
M  V30 21 1 19 22
M  V30 22 1 20 23
M  V30 23 1 21 24
M  V30 24 1 23 25
M  V30 25 2 25 26
M  V30 26 1 25 27
M  V30 27 1 26 28
M  V30 28 2 27 29
M  V30 29 1 28 30
M  V30 30 2 28 31
M  V30 31 1 30 32
M  V30 32 1 32 33
M  V30 33 1 32 34 CFG=1
M  V30 34 2 33 35
M  V30 35 1 33 36
M  V30 36 1 7 8
M  V30 37 1 17 18
M  V30 38 1 20 21
M  V30 39 1 29 31
M  V30 END BOND
M  V30 BEGIN COLLECTION
M  V30 MDLV30/STEABS ATOMS=(2 6 32)
M  V30 END COLLECTION
M  V30 END CTAB
M  END
>  <Molecule ChEMBL ID>
CHEMBL3678155

>  <Smiles>
Cc1c(C)n(Cc2cccc(O[C@@H](C)C(=O)O)c2)c2ccc(C(=O)N[C@@H](C)c3ccccc3Cl)cc12

>  <IC50_nM>
40

>  <Assay Description>
Lanthascreen Competitive Binding Assay: The assay was performed according to manufacturer protocol. A mixture of 5 nM GST-PPARG-LBD, 5 nM Tb-GST-antibody, 5 nM Fluormone Pan- PPAR Green, and serial dilutions of the experimental compound, beginning at 10 ׬� downwards, was added to wells of black 384-well low- volume plates (Greiner) to a total volume of 18 xL. All dilutions were made in TR-FRET assay buffer C. DMSO at 2% final concentration was used as a no-ligand control. Experiment was performed in triplicate, and incubated for 2 hours in the dark prior to assay read in Perkin Elmer ViewLux ultra HTS microplate reader. FRET signal was measured by excitation at 340 nm and emission at 520 nm for fluorescein and 490 nm for terbium.

$$$$
CHEMBL602469
Actelion Java MolfileCreator 2.0

  0  0  0  0  0  0              0 V3000
M  V30 BEGIN CTAB
M  V30 COUNTS 37 41 0 0 0
M  V30 BEGIN ATOM
M  V30 1 O 11.8592 -3.5669 0.0 0
M  V30 2 C 10.8811 -3.7748 0.0 0
M  V30 3 O 10.212 -3.0316 0.0 0
M  V30 4 C 10.5721 -4.7258 0.0 0
M  V30 5 C 9.5939 -4.9337 0.0 0
M  V30 6 C 11.2412 -5.469 0.0 0
M  V30 7 C 8.9248 -4.1906 0.0 0
M  V30 8 C 9.2849 -5.8848 0.0 0
M  V30 9 C 10.9322 -6.42 0.0 0
M  V30 10 C 9.2338 -3.2395 0.0 0
M  V30 11 C 7.9466 -4.3985 0.0 0
M  V30 12 C 9.954 -6.6279 0.0 0
M  V30 13 C 8.5647 -2.4964 0.0 0
M  V30 14 C 7.2775 -3.6554 0.0 0
M  V30 15 C 7.5865 -2.7043 0.0 0
M  V30 16 C 6.9174 -1.9612 0.0 0
M  V30 17 N 5.9392 -2.1691 0.0 0
M  V30 18 C 5.1961 -1.4999 0.0 0
M  V30 19 C 5.5325 -3.0826 0.0 0
M  V30 20 C 4.3301 -1.9999 0.0 0
M  V30 21 C 5.1961 -0.4999 0.0 0
M  V30 22 C 4.538 -2.9781 0.0 0
M  V30 23 C 6.0325 -3.9487 0.0 0
M  V30 24 C 3.4641 -1.5 0.0 0
M  V30 25 C 4.3301 0.0 0.0 0
M  V30 26 C 3.8689 -3.7212 0.0 0
M  V30 27 C 3.4641 -0.5 0.0 0
M  V30 28 C 2.598 0.0 0.0 0
M  V30 29 O 2.598 1.0 0.0 0
M  V30 30 N 1.732 -0.5 0.0 0
M  V30 31 C 0.866 0.0 0.0 0
M  V30 32 C 0.0 -0.5 0.0 0
M  V30 33 C -0.866 0.0 0.0 0
M  V30 34 C 0.0 -1.4999 0.0 0
M  V30 35 C -1.732 -0.4999 0.0 0
M  V30 36 C -0.866 -1.9999 0.0 0
M  V30 37 C -1.732 -1.4999 0.0 0
M  V30 END ATOM
M  V30 BEGIN BOND
M  V30 1 2 1 2
M  V30 2 1 2 3
M  V30 3 1 2 4
M  V30 4 2 4 5
M  V30 5 1 4 6
M  V30 6 1 5 7
M  V30 7 1 5 8
M  V30 8 2 6 9
M  V30 9 2 7 10
M  V30 10 1 7 11
M  V30 11 2 8 12
M  V30 12 1 10 13
M  V30 13 2 11 14
M  V30 14 2 13 15
M  V30 15 1 15 16
M  V30 16 1 16 17
M  V30 17 1 17 18
M  V30 18 1 17 19
M  V30 19 2 18 20
M  V30 20 1 18 21
M  V30 21 2 19 22
M  V30 22 1 19 23
M  V30 23 1 20 24
M  V30 24 2 21 25
M  V30 25 1 22 26
M  V30 26 2 24 27
M  V30 27 1 27 28
M  V30 28 2 28 29
M  V30 29 1 28 30
M  V30 30 1 30 31
M  V30 31 1 31 32
M  V30 32 2 32 33
M  V30 33 1 32 34
M  V30 34 1 33 35
M  V30 35 2 34 36
M  V30 36 2 35 37
M  V30 37 1 9 12
M  V30 38 1 14 15
M  V30 39 1 20 22
M  V30 40 1 25 27
M  V30 41 1 36 37
M  V30 END BOND
M  V30 END CTAB
M  END
>  <Molecule ChEMBL ID>
CHEMBL602469

>  <Smiles>
Cc1c(C)n(Cc2ccc(-c3ccccc3C(=O)O)cc2)c2ccc(C(=O)NCc3ccccc3)cc12

>  <IC50_nM>
41

>  <Assay Description>
Displacement of radiolabeled ((5-{4-[Methyl-pyridin-2yl-amino)-ethoxy]-benzyl}-thiazolidine-2,4-dione) from human PPARgamma ligand binding domain expressed in Escherichia coli

$$$$
CHEMBL3695871
Actelion Java MolfileCreator 2.0

  0  0  0  0  0  0              0 V3000
M  V30 BEGIN CTAB
M  V30 COUNTS 36 40 0 0 0
M  V30 BEGIN ATOM
M  V30 1 Cl 4.3301 0.9999 0.0 0
M  V30 2 C 4.3301 0.0 0.0 0
M  V30 3 C 3.4641 -0.5 0.0 0
M  V30 4 C 5.1961 -0.5 0.0 0
M  V30 5 C 3.4641 -1.5 0.0 0
M  V30 6 C 2.598 0.0 0.0 0 CFG=1
M  V30 7 N 5.1961 -1.5 0.0 0
M  V30 8 C 4.3301 -2.0 0.0 0
M  V30 9 N 1.732 -0.5 0.0 0
M  V30 10 C 2.598 1.0 0.0 0
M  V30 11 C 0.866 0.0 0.0 0
M  V30 12 O 0.866 1.0 0.0 0
M  V30 13 C 0.0 -0.5 0.0 0
M  V30 14 C 0.0 -1.4999 0.0 0
M  V30 15 C -0.866 0.0 0.0 0
M  V30 16 C -0.866 -1.9999 0.0 0
M  V30 17 C -1.732 -0.4999 0.0 0
M  V30 18 C -1.732 -1.4999 0.0 0
M  V30 19 C -1.0739 -2.9781 0.0 0
M  V30 20 N -2.4751 -2.1691 0.0 0
M  V30 21 C -2.0684 -3.0826 0.0 0
M  V30 22 C -0.4048 -3.7212 0.0 0
M  V30 23 C -3.4533 -1.9612 0.0 0
M  V30 24 C -2.5684 -3.9487 0.0 0
M  V30 25 C -4.1224 -2.7043 0.0 0
M  V30 26 C -5.1006 -2.4964 0.0 0
M  V30 27 C -3.8134 -3.6554 0.0 0
M  V30 28 C -5.7697 -3.2395 0.0 0
M  V30 29 C -4.4825 -4.3985 0.0 0
M  V30 30 C -5.4607 -4.1906 0.0 0
M  V30 31 C -6.1298 -4.9337 0.0 0
M  V30 32 C -7.108 -4.7258 0.0 0
M  V30 33 C -5.8208 -5.8848 0.0 0
M  V30 34 C -7.7771 -5.469 0.0 0
M  V30 35 C -6.4899 -6.6279 0.0 0
M  V30 36 C -7.4681 -6.42 0.0 0
M  V30 END ATOM
M  V30 BEGIN BOND
M  V30 1 1 1 2
M  V30 2 2 2 3
M  V30 3 1 2 4
M  V30 4 1 3 5
M  V30 5 1 3 6
M  V30 6 2 4 7
M  V30 7 2 5 8
M  V30 8 1 6 9
M  V30 9 1 6 10 CFG=1
M  V30 10 1 9 11
M  V30 11 2 11 12
M  V30 12 1 11 13
M  V30 13 2 13 14
M  V30 14 1 13 15
M  V30 15 1 14 16
M  V30 16 2 15 17
M  V30 17 2 16 18
M  V30 18 1 16 19
M  V30 19 1 18 20
M  V30 20 2 19 21
M  V30 21 1 19 22
M  V30 22 1 20 23
M  V30 23 1 21 24
M  V30 24 1 23 25
M  V30 25 2 25 26
M  V30 26 1 25 27
M  V30 27 1 26 28
M  V30 28 2 27 29
M  V30 29 2 28 30
M  V30 30 1 30 31
M  V30 31 2 31 32
M  V30 32 1 31 33
M  V30 33 1 32 34
M  V30 34 2 33 35
M  V30 35 2 34 36
M  V30 36 1 7 8
M  V30 37 1 17 18
M  V30 38 1 20 21
M  V30 39 1 29 30
M  V30 40 1 35 36
M  V30 END BOND
M  V30 BEGIN COLLECTION
M  V30 MDLV30/STEABS ATOMS=(1 6)
M  V30 END COLLECTION
M  V30 END CTAB
M  END
>  <Molecule ChEMBL ID>
CHEMBL3695871

>  <Smiles>
Cc1c(C)n(Cc2ccc(-c3ccccc3)cc2)c2ccc(C(=O)N[C@@H](C)c3ccncc3Cl)cc12

>  <IC50_nM>
41

>  <Assay Description>
Lanthascreen Competitive Binding Assay: The assay was performed according to manufacturer protocol. A mixture of nM GST-PPARG-LBD, 5 nM Tb-GST-antibody, 5 nM Fluormone Pan-PPAR Green, and serial dilutions of the experimental compound, beginning at 10 ׬M downwards, was added to wells of black 384-well low-volume plates (Greiner) to a total volume of 18 ׬L. All dilutions were made in TR-FRET assay buffer C. DMSO at 2% final concentration was used as a no-ligand control. Experiment was performed in triplicate, and incubated for 2 hours in the dark prior to assay read in Perkin Elmer ViewLux ultra HTS microplate reader. FRET signal was measured by excitation at 340 nm and emission at 520 nm for fluorescein and 490 nm for terbium. Fold change over DMSO was calculated using GraphPad Prism Software (La Jolla, Calif.) by calculating 520 nm/490 nm ratio. Graphs were plotted as fold change of FRET signal for compound treatment over DMSO-only control.

$$$$
CHEMBL191087
Actelion Java MolfileCreator 2.0

  0  0  0  0  0  0              0 V3000
M  V30 BEGIN CTAB
M  V30 COUNTS 36 39 0 0 0
M  V30 BEGIN ATOM
M  V30 1 F -0.3787 -4.7021 0.0 0
M  V30 2 C -0.1708 -3.7239 0.0 0
M  V30 3 F -1.1489 -3.516 0.0 0
M  V30 4 F 0.037 -2.7458 0.0 0
M  V30 5 O 0.8073 -3.9318 0.0 0
M  V30 6 C 1.4764 -3.1887 0.0 0
M  V30 7 C 1.1674 -2.2376 0.0 0
M  V30 8 C 2.4546 -3.3966 0.0 0
M  V30 9 C 1.8365 -1.4945 0.0 0
M  V30 10 C 3.1237 -2.6534 0.0 0
M  V30 11 C 2.8147 -1.7024 0.0 0
M  V30 12 C 1.732 -0.5 0.0 0
M  V30 13 N 3.3147 -0.8364 0.0 0
M  V30 14 C 2.6455 -0.0932 0.0 0
M  V30 15 C 0.866 0.0 0.0 0
M  V30 16 C 4.3092 -0.7318 0.0 0
M  V30 17 C 2.8535 0.8848 0.0 0
M  V30 18 C 0.0 -0.5 0.0 0
M  V30 19 O 4.897 -1.5408 0.0 0
M  V30 20 C 4.7159 0.1816 0.0 0
M  V30 21 C -0.866 0.0 0.0 0
M  V30 22 C 0.0 -1.4999 0.0 0
M  V30 23 C 5.7105 0.2861 0.0 0
M  V30 24 C 4.1282 0.9906 0.0 0
M  V30 25 C -1.732 -0.4999 0.0 0
M  V30 26 C -0.866 -1.9999 0.0 0
M  V30 27 C 6.1172 1.1997 0.0 0
M  V30 28 C 4.5349 1.9042 0.0 0
M  V30 29 O -2.598 0.0 0.0 0
M  V30 30 C -1.732 -1.4999 0.0 0
M  V30 31 C 5.5294 2.0087 0.0 0
M  V30 32 C -3.4641 -0.4999 0.0 0
M  V30 33 O 5.9361 2.9223 0.0 0
M  V30 34 C -3.4641 -1.4999 0.0 0
M  V30 35 C 5.3484 3.7313 0.0 0
M  V30 36 N -3.4641 -2.4999 0.0 0
M  V30 END ATOM
M  V30 BEGIN BOND
M  V30 1 1 1 2
M  V30 2 1 2 3
M  V30 3 1 2 4
M  V30 4 1 2 5
M  V30 5 1 5 6
M  V30 6 2 6 7
M  V30 7 1 6 8
M  V30 8 1 7 9
M  V30 9 2 8 10
M  V30 10 2 9 11
M  V30 11 1 9 12
M  V30 12 1 11 13
M  V30 13 2 12 14
M  V30 14 1 12 15
M  V30 15 1 13 16
M  V30 16 1 14 17
M  V30 17 1 15 18
M  V30 18 2 16 19
M  V30 19 1 16 20
M  V30 20 2 18 21
M  V30 21 1 18 22
M  V30 22 2 20 23
M  V30 23 1 20 24
M  V30 24 1 21 25
M  V30 25 2 22 26
M  V30 26 1 23 27
M  V30 27 2 24 28
M  V30 28 1 25 29
M  V30 29 2 25 30
M  V30 30 2 27 31
M  V30 31 1 29 32
M  V30 32 1 31 33
M  V30 33 1 32 34
M  V30 34 1 33 35
M  V30 35 3 34 36
M  V30 36 1 10 11
M  V30 37 1 13 14
M  V30 38 1 26 30
M  V30 39 1 28 31
M  V30 END BOND
M  V30 END CTAB
M  END
>  <Molecule ChEMBL ID>
CHEMBL191087

>  <Smiles>
COc1ccc(C(=O)n2c(C)c(Cc3cccc(OCC#N)c3)c3cc(OC(F)(F)F)ccc32)cc1

>  <IC50_nM>
42

>  <Assay Description>
Inhibition of human peroxisome proliferator activated receptor gamma binding

$$$$
CHEMBL3699371
Actelion Java MolfileCreator 2.0

  0  0  0  0  0  0              0 V3000
M  V30 BEGIN CTAB
M  V30 COUNTS 40 44 0 0 0
M  V30 BEGIN ATOM
M  V30 1 O 11.8592 -3.5669 0.0 0
M  V30 2 C 10.8811 -3.7748 0.0 0
M  V30 3 O 10.212 -3.0316 0.0 0
M  V30 4 C 10.5721 -4.7258 0.0 0
M  V30 5 C 9.5939 -4.9337 0.0 0
M  V30 6 C 11.2412 -5.469 0.0 0
M  V30 7 C 8.9248 -4.1906 0.0 0
M  V30 8 C 9.2849 -5.8848 0.0 0
M  V30 9 C 10.9322 -6.42 0.0 0
M  V30 10 C 9.2338 -3.2395 0.0 0
M  V30 11 C 7.9466 -4.3985 0.0 0
M  V30 12 C 9.954 -6.6279 0.0 0
M  V30 13 C 8.5647 -2.4964 0.0 0
M  V30 14 C 7.2775 -3.6554 0.0 0
M  V30 15 C 7.5865 -2.7043 0.0 0
M  V30 16 C 6.9174 -1.9612 0.0 0
M  V30 17 N 5.9392 -2.1691 0.0 0
M  V30 18 C 5.1961 -1.4999 0.0 0
M  V30 19 C 5.5325 -3.0826 0.0 0
M  V30 20 C 4.3301 -1.9999 0.0 0
M  V30 21 C 5.1961 -0.4999 0.0 0
M  V30 22 C 4.538 -2.9781 0.0 0
M  V30 23 C 6.0325 -3.9487 0.0 0
M  V30 24 C 3.4641 -1.5 0.0 0
M  V30 25 C 4.3301 0.0 0.0 0
M  V30 26 C 3.8689 -3.7212 0.0 0
M  V30 27 C 3.4641 -0.5 0.0 0
M  V30 28 C 2.598 0.0 0.0 0
M  V30 29 O 2.598 1.0 0.0 0
M  V30 30 N 1.732 -0.5 0.0 0
M  V30 31 C 0.866 0.0 0.0 0 CFG=2
M  V30 32 C 0.866 1.0 0.0 0
M  V30 33 C 0.0 -0.5 0.0 0
M  V30 34 C 1.732 1.5 0.0 0
M  V30 35 C 0.0 1.4999 0.0 0
M  V30 36 C 1.732 2.4999 0.0 0
M  V30 37 C 0.0 2.4999 0.0 0
M  V30 38 C 0.866 2.9999 0.0 0
M  V30 39 C 0.866 3.9999 0.0 0
M  V30 40 C 0.0 4.5 0.0 0
M  V30 END ATOM
M  V30 BEGIN BOND
M  V30 1 2 1 2
M  V30 2 1 2 3
M  V30 3 1 2 4
M  V30 4 2 4 5
M  V30 5 1 4 6
M  V30 6 1 5 7
M  V30 7 1 5 8
M  V30 8 2 6 9
M  V30 9 2 7 10
M  V30 10 1 7 11
M  V30 11 2 8 12
M  V30 12 1 10 13
M  V30 13 2 11 14
M  V30 14 2 13 15
M  V30 15 1 15 16
M  V30 16 1 16 17
M  V30 17 1 17 18
M  V30 18 1 17 19
M  V30 19 2 18 20
M  V30 20 1 18 21
M  V30 21 2 19 22
M  V30 22 1 19 23
M  V30 23 1 20 24
M  V30 24 2 21 25
M  V30 25 1 22 26
M  V30 26 2 24 27
M  V30 27 1 27 28
M  V30 28 2 28 29
M  V30 29 1 28 30
M  V30 30 1 30 31
M  V30 31 1 31 32
M  V30 32 1 31 33 CFG=1
M  V30 33 2 32 34
M  V30 34 1 32 35
M  V30 35 1 34 36
M  V30 36 2 35 37
M  V30 37 2 36 38
M  V30 38 1 38 39
M  V30 39 1 39 40
M  V30 40 1 9 12
M  V30 41 1 14 15
M  V30 42 1 20 22
M  V30 43 1 25 27
M  V30 44 1 37 38
M  V30 END BOND
M  V30 BEGIN COLLECTION
M  V30 MDLV30/STEABS ATOMS=(1 31)
M  V30 END COLLECTION
M  V30 END CTAB
M  END
>  <Molecule ChEMBL ID>
CHEMBL3699371

>  <Smiles>
CCc1ccc([C@H](C)NC(=O)c2ccc3c(c2)c(C)c(C)n3Cc2ccc(-c3ccccc3C(=O)O)cc2)cc1

>  <IC50_nM>
43

>  <Assay Description>
Lanthascreen Competitive Binding Assay: The assay was performed according to manufacturer protocol. A mixture of nM GST-PPARG-LBD, 5 nM Tb-GST-antibody, 5 nM Fluormone Pan-PPAR Green, and serial dilutions of the experimental compound, beginning at 10 ׬M downwards, was added to wells of black 384-well low-volume plates (Greiner) to a total volume of 18 ׬L. All dilutions were made in TR-FRET assay buffer C. DMSO at 2% final concentration was used as a no-ligand control. Experiment was performed in triplicate, and incubated for 2 hours in the dark prior to assay read in Perkin Elmer ViewLux ultra HTS microplate reader. FRET signal was measured by excitation at 340 nm and emission at 520 nm for fluorescein and 490 nm for terbium. Fold change over DMSO was calculated using GraphPad Prism Software (La Jolla, Calif.) by calculating 520 nm/490 nm ratio. Graphs were plotted as fold change of FRET signal for compound treatment over DMSO-only control.

$$$$
CHEMBL121
Actelion Java MolfileCreator 2.0

  0  0  0  0  0  0              0 V3000
M  V30 BEGIN CTAB
M  V30 COUNTS 25 27 0 0 0
M  V30 BEGIN ATOM
M  V30 1 S 7.8987 0.0054 0.0 0
M  V30 2 C 8.8769 -0.2024 0.0 0
M  V30 3 C 7.7942 0.9999 0.0 0 CFG=2
M  V30 4 O 9.2836 -1.1159 0.0 0
M  V30 5 N 9.3769 0.6635 0.0 0
M  V30 6 C 8.7077 1.4067 0.0 0
M  V30 7 C 6.9282 1.4999 0.0 0
M  V30 8 O 8.9156 2.3848 0.0 0
M  V30 9 C 6.0621 0.9999 0.0 0
M  V30 10 C 5.1961 1.4999 0.0 0
M  V30 11 C 6.0621 0.0 0.0 0
M  V30 12 C 4.3301 0.9999 0.0 0
M  V30 13 C 5.1961 -0.5 0.0 0
M  V30 14 C 4.3301 0.0 0.0 0
M  V30 15 O 3.4641 -0.5 0.0 0
M  V30 16 C 2.598 0.0 0.0 0
M  V30 17 C 1.732 -0.5 0.0 0
M  V30 18 N 0.866 0.0 0.0 0
M  V30 19 C 0.866 1.0 0.0 0
M  V30 20 C 0.0 -0.5 0.0 0
M  V30 21 N 1.732 1.4999 0.0 0
M  V30 22 C 0.0 1.4999 0.0 0
M  V30 23 C 1.732 2.5 0.0 0
M  V30 24 C 0.0 2.5 0.0 0
M  V30 25 C 0.866 3.0 0.0 0
M  V30 END ATOM
M  V30 BEGIN BOND
M  V30 1 1 1 2
M  V30 2 1 1 3
M  V30 3 2 2 4
M  V30 4 1 2 5
M  V30 5 1 3 6
M  V30 6 1 3 7 CFG=1
M  V30 7 2 6 8
M  V30 8 1 7 9
M  V30 9 2 9 10
M  V30 10 1 9 11
M  V30 11 1 10 12
M  V30 12 2 11 13
M  V30 13 2 12 14
M  V30 14 1 14 15
M  V30 15 1 15 16
M  V30 16 1 16 17
M  V30 17 1 17 18
M  V30 18 1 18 19
M  V30 19 1 18 20
M  V30 20 2 19 21
M  V30 21 1 19 22
M  V30 22 1 21 23
M  V30 23 2 22 24
M  V30 24 2 23 25
M  V30 25 1 5 6
M  V30 26 1 13 14
M  V30 27 1 24 25
M  V30 END BOND
M  V30 BEGIN COLLECTION
M  V30 MDLV30/STERAC1 ATOMS=(1 3)
M  V30 END COLLECTION
M  V30 END CTAB
M  END
>  <Molecule ChEMBL ID>
CHEMBL121

>  <Smiles>
CN(CCOc1ccc(CC2SC(=O)NC2=O)cc1)c1ccccn1

>  <IC50_nM>
43

>  <Assay Description>
Inhibition of PPARgamma

$$$$
CHEMBL360368
Actelion Java MolfileCreator 2.0

  0  0  0  0  0  0              0 V3000
M  V30 BEGIN CTAB
M  V30 COUNTS 32 34 0 0 0
M  V30 BEGIN ATOM
M  V30 1 O 14.2894 -4.5 0.0 0
M  V30 2 C 12.9903 -5.25 0.0 0
M  V30 3 O 12.9903 -6.75 0.0 0
M  V30 4 C 11.6913 -4.5 0.0 0 CFG=1
M  V30 5 O 10.3923 -5.25 0.0 0
M  V30 6 C 11.6913 -3.0 0.0 0
M  V30 7 C 9.0932 -4.5 0.0 0
M  V30 8 C 10.3923 -2.25 0.0 0
M  V30 9 C 7.7942 -5.25 0.0 0
M  V30 10 C 10.3923 -0.75 0.0 0
M  V30 11 C 9.0932 -3.0 0.0 0
M  V30 12 C 9.0932 0.0 0.0 0
M  V30 13 C 7.7942 -2.25 0.0 0
M  V30 14 C 7.7942 -0.75 0.0 0
M  V30 15 O 6.4951 0.0 0.0 0
M  V30 16 C 5.1961 -0.75 0.0 0
M  V30 17 C 3.8971 0.0 0.0 0
M  V30 18 C 2.598 -0.75 0.0 0
M  V30 19 O 1.299 0.0 0.0 0
M  V30 20 C 0.0 -0.75 0.0 0
M  V30 21 C -1.299 0.0 0.0 0
M  V30 22 C 0.0 -2.25 0.0 0
M  V30 23 C -2.598 -0.7499 0.0 0
M  V30 24 C -1.299 -2.9999 0.0 0
M  V30 25 C -2.598 -2.2499 0.0 0
M  V30 26 O -3.8971 -2.9999 0.0 0
M  V30 27 C -3.8971 -4.4999 0.0 0
M  V30 28 C -5.1961 -5.2499 0.0 0
M  V30 29 C -2.598 -5.2499 0.0 0
M  V30 30 C -5.1961 -6.7499 0.0 0
M  V30 31 C -2.598 -6.7499 0.0 0
M  V30 32 C -3.8971 -7.4999 0.0 0
M  V30 END ATOM
M  V30 BEGIN BOND
M  V30 1 2 1 2
M  V30 2 1 2 3
M  V30 3 1 2 4
M  V30 4 1 4 5 CFG=1
M  V30 5 1 4 6
M  V30 6 1 5 7
M  V30 7 1 6 8
M  V30 8 1 7 9
M  V30 9 2 8 10
M  V30 10 1 8 11
M  V30 11 1 10 12
M  V30 12 2 11 13
M  V30 13 2 12 14
M  V30 14 1 14 15
M  V30 15 1 15 16
M  V30 16 1 16 17
M  V30 17 1 17 18
M  V30 18 1 18 19
M  V30 19 1 19 20
M  V30 20 2 20 21
M  V30 21 1 20 22
M  V30 22 1 21 23
M  V30 23 2 22 24
M  V30 24 2 23 25
M  V30 25 1 25 26
M  V30 26 1 26 27
M  V30 27 2 27 28
M  V30 28 1 27 29
M  V30 29 1 28 30
M  V30 30 2 29 31
M  V30 31 2 30 32
M  V30 32 1 13 14
M  V30 33 1 24 25
M  V30 34 1 31 32
M  V30 END BOND
M  V30 BEGIN COLLECTION
M  V30 MDLV30/STEABS ATOMS=(1 4)
M  V30 END COLLECTION
M  V30 END CTAB
M  END
>  <Molecule ChEMBL ID>
CHEMBL360368

>  <Smiles>
CCO[C@@H](Cc1ccc(OCCCOc2ccc(Oc3ccccc3)cc2)cc1)C(=O)O

>  <IC50_nM>
43.95

>  <Assay Description>
Agonist activity at PPARgamma

$$$$
CHEMBL360368
Actelion Java MolfileCreator 2.0

  0  0  0  0  0  0              0 V3000
M  V30 BEGIN CTAB
M  V30 COUNTS 32 34 0 0 0
M  V30 BEGIN ATOM
M  V30 1 O 14.2894 -4.5 0.0 0
M  V30 2 C 12.9903 -5.25 0.0 0
M  V30 3 O 12.9903 -6.75 0.0 0
M  V30 4 C 11.6913 -4.5 0.0 0 CFG=1
M  V30 5 O 10.3923 -5.25 0.0 0
M  V30 6 C 11.6913 -3.0 0.0 0
M  V30 7 C 9.0932 -4.5 0.0 0
M  V30 8 C 10.3923 -2.25 0.0 0
M  V30 9 C 7.7942 -5.25 0.0 0
M  V30 10 C 10.3923 -0.75 0.0 0
M  V30 11 C 9.0932 -3.0 0.0 0
M  V30 12 C 9.0932 0.0 0.0 0
M  V30 13 C 7.7942 -2.25 0.0 0
M  V30 14 C 7.7942 -0.75 0.0 0
M  V30 15 O 6.4951 0.0 0.0 0
M  V30 16 C 5.1961 -0.75 0.0 0
M  V30 17 C 3.8971 0.0 0.0 0
M  V30 18 C 2.598 -0.75 0.0 0
M  V30 19 O 1.299 0.0 0.0 0
M  V30 20 C 0.0 -0.75 0.0 0
M  V30 21 C -1.299 0.0 0.0 0
M  V30 22 C 0.0 -2.25 0.0 0
M  V30 23 C -2.598 -0.7499 0.0 0
M  V30 24 C -1.299 -2.9999 0.0 0
M  V30 25 C -2.598 -2.2499 0.0 0
M  V30 26 O -3.8971 -2.9999 0.0 0
M  V30 27 C -3.8971 -4.4999 0.0 0
M  V30 28 C -5.1961 -5.2499 0.0 0
M  V30 29 C -2.598 -5.2499 0.0 0
M  V30 30 C -5.1961 -6.7499 0.0 0
M  V30 31 C -2.598 -6.7499 0.0 0
M  V30 32 C -3.8971 -7.4999 0.0 0
M  V30 END ATOM
M  V30 BEGIN BOND
M  V30 1 2 1 2
M  V30 2 1 2 3
M  V30 3 1 2 4
M  V30 4 1 4 5 CFG=1
M  V30 5 1 4 6
M  V30 6 1 5 7
M  V30 7 1 6 8
M  V30 8 1 7 9
M  V30 9 2 8 10
M  V30 10 1 8 11
M  V30 11 1 10 12
M  V30 12 2 11 13
M  V30 13 2 12 14
M  V30 14 1 14 15
M  V30 15 1 15 16
M  V30 16 1 16 17
M  V30 17 1 17 18
M  V30 18 1 18 19
M  V30 19 1 19 20
M  V30 20 2 20 21
M  V30 21 1 20 22
M  V30 22 1 21 23
M  V30 23 2 22 24
M  V30 24 2 23 25
M  V30 25 1 25 26
M  V30 26 1 26 27
M  V30 27 2 27 28
M  V30 28 1 27 29
M  V30 29 1 28 30
M  V30 30 2 29 31
M  V30 31 2 30 32
M  V30 32 1 13 14
M  V30 33 1 24 25
M  V30 34 1 31 32
M  V30 END BOND
M  V30 BEGIN COLLECTION
M  V30 MDLV30/STEABS ATOMS=(1 4)
M  V30 END COLLECTION
M  V30 END CTAB
M  END
>  <Molecule ChEMBL ID>
CHEMBL360368

>  <Smiles>
CCO[C@@H](Cc1ccc(OCCCOc2ccc(Oc3ccccc3)cc2)cc1)C(=O)O

>  <IC50_nM>
44

>  <Assay Description>
Mean inhibitory concentration against human peroxisome proliferator-activated receptor gamma

$$$$
CHEMBL3678107
Actelion Java MolfileCreator 2.0

  0  0  0  0  0  0              0 V3000
M  V30 BEGIN CTAB
M  V30 COUNTS 38 42 0 0 0
M  V30 BEGIN ATOM
M  V30 1 O 2.5993 -0.7503 0.0 0
M  V30 2 C 3.899 0.0 0.0 0
M  V30 3 N 5.1987 -0.7503 0.0 0
M  V30 4 C 3.899 1.5007 0.0 0
M  V30 5 C 6.4983 0.0 0.0 0 CFG=2
M  V30 6 C 2.5993 2.2511 0.0 0
M  V30 7 C 5.1987 2.2511 0.0 0
M  V30 8 C 7.798 -0.7503 0.0 0
M  V30 9 C 6.4983 1.5007 0.0 0
M  V30 10 C 2.5993 3.7518 0.0 0
M  V30 11 C 5.1987 3.7518 0.0 0
M  V30 12 C 7.798 -2.2511 0.0 0
M  V30 13 C 9.0977 0.0 0.0 0
M  V30 14 C 3.899 4.5022 0.0 0
M  V30 15 C 1.484 4.756 0.0 0
M  V30 16 C 9.0977 -3.0014 0.0 0
M  V30 17 C 10.3974 -0.7503 0.0 0
M  V30 18 N 3.587 5.9701 0.0 0
M  V30 19 C 2.0944 6.127 0.0 0
M  V30 20 C 0.0161 4.444 0.0 0
M  V30 21 C 10.3974 -2.2511 0.0 0
M  V30 22 C 9.0977 -4.5022 0.0 0
M  V30 23 C 4.5912 7.0854 0.0 0
M  V30 24 C 1.3441 7.4267 0.0 0
M  V30 25 C 7.798 -5.2525 0.0 0
M  V30 26 C 10.3974 -5.2525 0.0 0
M  V30 27 C 4.1274 8.5127 0.0 0
M  V30 28 C 5.1316 9.6279 0.0 0
M  V30 29 C 2.6595 8.8247 0.0 0
M  V30 30 C 4.6577 11.0404 0.0 0
M  V30 31 C 2.1957 10.252 0.0 0
M  V30 32 C 3.1999 11.3672 0.0 0
M  V30 33 C 2.7361 12.7945 0.0 0
M  V30 34 C 4.2348 12.8731 0.0 0
M  V30 35 C 1.399 13.4758 0.0 0
M  V30 36 C 1.4775 11.9772 0.0 0
M  V30 37 O 4.9161 14.2102 0.0 0
M  V30 38 O 5.0725 11.644 0.0 0
M  V30 END ATOM
M  V30 BEGIN BOND
M  V30 1 2 1 2
M  V30 2 1 2 3
M  V30 3 1 2 4
M  V30 4 1 3 5
M  V30 5 2 4 6
M  V30 6 1 4 7
M  V30 7 1 5 8
M  V30 8 1 5 9 CFG=1
M  V30 9 1 6 10
M  V30 10 2 7 11
M  V30 11 2 8 12
M  V30 12 1 8 13
M  V30 13 2 10 14
M  V30 14 1 10 15
M  V30 15 1 12 16
M  V30 16 2 13 17
M  V30 17 1 14 18
M  V30 18 2 15 19
M  V30 19 1 15 20
M  V30 20 2 16 21
M  V30 21 1 16 22
M  V30 22 1 18 23
M  V30 23 1 19 24
M  V30 24 1 22 25
M  V30 25 1 22 26
M  V30 26 1 23 27
M  V30 27 2 27 28
M  V30 28 1 27 29
M  V30 29 1 28 30
M  V30 30 2 29 31
M  V30 31 2 30 32
M  V30 32 1 32 33
M  V30 33 1 33 34
M  V30 34 1 33 35
M  V30 35 1 33 36
M  V30 36 2 34 37
M  V30 37 1 34 38
M  V30 38 1 11 14
M  V30 39 1 17 21
M  V30 40 1 18 19
M  V30 41 1 31 32
M  V30 42 1 35 36
M  V30 END BOND
M  V30 BEGIN COLLECTION
M  V30 MDLV30/STEABS ATOMS=(1 5)
M  V30 END COLLECTION
M  V30 END CTAB
M  END
>  <Molecule ChEMBL ID>
CHEMBL3678107

>  <Smiles>
Cc1c(C)n(Cc2ccc(C3(C(=O)O)CC3)cc2)c2ccc(C(=O)N[C@@H](C)c3cccc(C(C)C)c3)cc12

>  <IC50_nM>
44

>  <Assay Description>
Lanthascreen Competitive Binding Assay: The assay was performed according to manufacturer protocol. A mixture of 5 nM GST-PPARG-LBD, 5 nM Tb-GST-antibody, 5 nM Fluormone Pan- PPAR Green, and serial dilutions of the experimental compound, beginning at 10 ׬� downwards, was added to wells of black 384-well low- volume plates (Greiner) to a total volume of 18 xL. All dilutions were made in TR-FRET assay buffer C. DMSO at 2% final concentration was used as a no-ligand control. Experiment was performed in triplicate, and incubated for 2 hours in the dark prior to assay read in Perkin Elmer ViewLux ultra HTS microplate reader. FRET signal was measured by excitation at 340 nm and emission at 520 nm for fluorescein and 490 nm for terbium.

$$$$
CHEMBL181141
Actelion Java MolfileCreator 2.0

  0  0  0  0  0  0              0 V3000
M  V30 BEGIN CTAB
M  V30 COUNTS 35 38 0 0 0
M  V30 BEGIN ATOM
M  V30 1 Cl 9.0997 -8.778 0.0 0
M  V30 2 C 9.9814 -7.5645 0.0 0
M  V30 3 C 11.4731 -7.7213 0.0 0
M  V30 4 C 9.3712 -6.1942 0.0 0
M  V30 5 C 12.3548 -6.5078 0.0 0
M  V30 6 C 10.2529 -4.9807 0.0 0
M  V30 7 C 11.7447 -5.1375 0.0 0
M  V30 8 C 12.6264 -3.9239 0.0 0
M  V30 9 O 14.1182 -4.0807 0.0 0
M  V30 10 N 12.0163 -2.5536 0.0 0
M  V30 11 C 12.7663 -1.2546 0.0 0
M  V30 12 C 10.5491 -2.2417 0.0 0
M  V30 13 C 11.7626 -0.1398 0.0 0
M  V30 14 C 14.2335 -0.9427 0.0 0
M  V30 15 C 10.3923 -0.75 0.0 0
M  V30 16 C 9.4343 -3.2454 0.0 0
M  V30 17 C 12.2261 1.2866 0.0 0
M  V30 18 C 14.697 0.4838 0.0 0
M  V30 19 C 9.0932 0.0 0.0 0
M  V30 20 C 13.6933 1.5985 0.0 0
M  V30 21 C 7.7942 -0.75 0.0 0
M  V30 22 O 14.1569 3.0251 0.0 0
M  V30 23 C 6.4951 0.0 0.0 0
M  V30 24 C 7.7942 -2.25 0.0 0
M  V30 25 C 13.1532 4.1398 0.0 0
M  V30 26 C 5.1961 -0.75 0.0 0
M  V30 27 C 6.4951 -3.0 0.0 0
M  V30 28 O 3.8971 0.0 0.0 0
M  V30 29 C 5.1961 -2.25 0.0 0
M  V30 30 C 2.598 -0.75 0.0 0
M  V30 31 C 1.299 0.0 0.0 0
M  V30 32 C 1.848 -2.049 0.0 0
M  V30 33 C 3.348 -2.049 0.0 0
M  V30 34 O 1.299 1.5 0.0 0
M  V30 35 O 0.0 -0.75 0.0 0
M  V30 END ATOM
M  V30 BEGIN BOND
M  V30 1 1 1 2
M  V30 2 2 2 3
M  V30 3 1 2 4
M  V30 4 1 3 5
M  V30 5 2 4 6
M  V30 6 2 5 7
M  V30 7 1 7 8
M  V30 8 2 8 9
M  V30 9 1 8 10
M  V30 10 1 10 11
M  V30 11 1 10 12
M  V30 12 2 11 13
M  V30 13 1 11 14
M  V30 14 2 12 15
M  V30 15 1 12 16
M  V30 16 1 13 17
M  V30 17 2 14 18
M  V30 18 1 15 19
M  V30 19 2 17 20
M  V30 20 1 19 21
M  V30 21 1 20 22
M  V30 22 2 21 23
M  V30 23 1 21 24
M  V30 24 1 22 25
M  V30 25 1 23 26
M  V30 26 2 24 27
M  V30 27 1 26 28
M  V30 28 2 26 29
M  V30 29 1 28 30
M  V30 30 1 30 31
M  V30 31 1 30 32
M  V30 32 1 30 33
M  V30 33 2 31 34
M  V30 34 1 31 35
M  V30 35 1 6 7
M  V30 36 1 13 15
M  V30 37 1 18 20
M  V30 38 1 27 29
M  V30 END BOND
M  V30 END CTAB
M  END
>  <Molecule ChEMBL ID>
CHEMBL181141

>  <Smiles>
COc1ccc2c(c1)c(Cc1cccc(OC(C)(C)C(=O)O)c1)c(C)n2C(=O)c1ccc(Cl)cc1

>  <IC50_nM>
45

>  <Assay Description>
In vitro inhibition of human Peroxisome proliferator activated receptor gamma

$$$$
CHEMBL241471
Actelion Java MolfileCreator 2.0

  0  0  0  0  0  0              0 V3000
M  V30 BEGIN CTAB
M  V30 COUNTS 32 34 0 0 0
M  V30 BEGIN ATOM
M  V30 1 O 8.6602 -4.5 0.0 0
M  V30 2 C 8.6602 -3.5 0.0 0
M  V30 3 O 9.5262 -3.0 0.0 0
M  V30 4 C 7.7942 -3.0 0.0 0
M  V30 5 C 7.7942 -2.0 0.0 0
M  V30 6 C 6.9282 -1.5 0.0 0
M  V30 7 C 6.9282 -0.5 0.0 0
M  V30 8 C 6.0621 -2.0 0.0 0
M  V30 9 C 6.0621 0.0 0.0 0
M  V30 10 C 7.7942 0.0 0.0 0
M  V30 11 C 5.1961 -1.5 0.0 0
M  V30 12 C 5.1961 -0.5 0.0 0
M  V30 13 O 4.3301 0.0 0.0 0
M  V30 14 C 3.4641 -0.5 0.0 0
M  V30 15 C 2.598 0.0 0.0 0
M  V30 16 C 1.732 -0.5 0.0 0 CFG=2
M  V30 17 O 0.866 0.0 0.0 0
M  V30 18 C 1.732 -1.5 0.0 0
M  V30 19 C 0.0 -0.5 0.0 0
M  V30 20 C -0.866 0.0 0.0 0
M  V30 21 C 0.0 -1.4999 0.0 0
M  V30 22 C -0.866 1.0 0.0 0
M  V30 23 C -1.732 -0.4999 0.0 0
M  V30 24 C -0.866 -1.9999 0.0 0
M  V30 25 N 0.0 1.4999 0.0 0
M  V30 26 C -1.732 1.5 0.0 0
M  V30 27 C -1.732 -1.4999 0.0 0
M  V30 28 C 0.0 2.4999 0.0 0
M  V30 29 C -1.732 2.5 0.0 0
M  V30 30 C -2.598 -1.9999 0.0 0
M  V30 31 C -0.866 3.0 0.0 0
M  V30 32 C -2.598 -2.9999 0.0 0
M  V30 END ATOM
M  V30 BEGIN BOND
M  V30 1 2 1 2
M  V30 2 1 2 3
M  V30 3 1 2 4
M  V30 4 1 4 5
M  V30 5 1 5 6
M  V30 6 2 6 7
M  V30 7 1 6 8
M  V30 8 1 7 9
M  V30 9 1 7 10
M  V30 10 2 8 11
M  V30 11 2 9 12
M  V30 12 1 12 13
M  V30 13 1 13 14
M  V30 14 1 14 15
M  V30 15 1 15 16
M  V30 16 1 16 17
M  V30 17 1 16 18 CFG=1
M  V30 18 1 17 19
M  V30 19 2 19 20
M  V30 20 1 19 21
M  V30 21 1 20 22
M  V30 22 1 20 23
M  V30 23 2 21 24
M  V30 24 2 22 25
M  V30 25 1 22 26
M  V30 26 2 23 27
M  V30 27 1 25 28
M  V30 28 2 26 29
M  V30 29 1 27 30
M  V30 30 2 28 31
M  V30 31 1 30 32
M  V30 32 1 11 12
M  V30 33 1 24 27
M  V30 34 1 29 31
M  V30 END BOND
M  V30 BEGIN COLLECTION
M  V30 MDLV30/STEABS ATOMS=(1 16)
M  V30 END COLLECTION
M  V30 END CTAB
M  END
>  <Molecule ChEMBL ID>
CHEMBL241471

>  <Smiles>
CCc1ccc(O[C@H](C)CCOc2ccc(CCC(=O)O)c(C)c2)c(-c2ccccn2)c1

>  <IC50_nM>
46

>  <Assay Description>
Displacement of [3H]2-methyl-2-(4-{3-[porpyl-(5-pyridin-2yl-thiophene-2-sulfonyl)-amino]-propyl}-phenoxy)-propionic acid from human PPARgamma

$$$$
CHEMBL1783041
Actelion Java MolfileCreator 2.0

  0  0  0  0  0  0              0 V3000
M  V30 BEGIN CTAB
M  V30 COUNTS 35 38 0 0 0
M  V30 BEGIN ATOM
M  V30 1 S 8.7077 -0.4067 0.0 0
M  V30 2 C 9.3769 0.3364 0.0 0
M  V30 3 C 7.7942 0.0 0.0 0 CFG=1
M  V30 4 O 10.3714 0.2318 0.0 0
M  V30 5 N 8.8769 1.2024 0.0 0
M  V30 6 C 6.9282 -0.5 0.0 0
M  V30 7 C 7.8987 0.9945 0.0 0
M  V30 8 C 6.0621 0.0 0.0 0
M  V30 9 C 6.9282 -1.5 0.0 0
M  V30 10 O 7.1556 1.6636 0.0 0
M  V30 11 C 5.1961 -0.5 0.0 0
M  V30 12 C 6.0621 -2.0 0.0 0
M  V30 13 O 4.3301 0.0 0.0 0
M  V30 14 C 5.1961 -1.5 0.0 0
M  V30 15 C 3.4641 -0.5 0.0 0
M  V30 16 C 2.598 0.0 0.0 0
M  V30 17 C 1.732 -0.5 0.0 0
M  V30 18 O 0.866 0.0 0.0 0
M  V30 19 C 0.0 -0.5 0.0 0
M  V30 20 C -0.866 0.0 0.0 0
M  V30 21 C 0.0 -1.4999 0.0 0
M  V30 22 C -1.732 -0.4999 0.0 0
M  V30 23 C -0.866 1.0 0.0 0
M  V30 24 C -0.866 -1.9999 0.0 0
M  V30 25 C -1.732 -1.4999 0.0 0
M  V30 26 C 0.0 1.5 0.0 0
M  V30 27 C -2.598 -1.9999 0.0 0
M  V30 28 C 0.0 2.5 0.0 0
M  V30 29 O -3.4641 -1.4999 0.0 0
M  V30 30 C -2.598 -2.9999 0.0 0
M  V30 31 C -3.4641 -3.4999 0.0 0
M  V30 32 C -1.732 -3.4999 0.0 0
M  V30 33 C -3.4641 -4.4999 0.0 0
M  V30 34 C -1.732 -4.4999 0.0 0
M  V30 35 C -2.598 -4.9999 0.0 0
M  V30 END ATOM
M  V30 BEGIN BOND
M  V30 1 1 1 2
M  V30 2 1 1 3
M  V30 3 2 2 4
M  V30 4 1 2 5
M  V30 5 1 3 6 CFG=1
M  V30 6 1 3 7
M  V30 7 2 6 8
M  V30 8 1 6 9
M  V30 9 2 7 10
M  V30 10 1 8 11
M  V30 11 2 9 12
M  V30 12 1 11 13
M  V30 13 2 11 14
M  V30 14 1 13 15
M  V30 15 1 15 16
M  V30 16 1 16 17
M  V30 17 1 17 18
M  V30 18 1 18 19
M  V30 19 2 19 20
M  V30 20 1 19 21
M  V30 21 1 20 22
M  V30 22 1 20 23
M  V30 23 2 21 24
M  V30 24 2 22 25
M  V30 25 1 23 26
M  V30 26 1 25 27
M  V30 27 1 26 28
M  V30 28 2 27 29
M  V30 29 1 27 30
M  V30 30 1 30 31
M  V30 31 1 30 32
M  V30 32 1 31 33
M  V30 33 1 32 34
M  V30 34 1 33 35
M  V30 35 1 5 7
M  V30 36 1 12 14
M  V30 37 1 24 25
M  V30 38 1 34 35
M  V30 END BOND
M  V30 BEGIN COLLECTION
M  V30 MDLV30/STEABS ATOMS=(1 3)
M  V30 END COLLECTION
M  V30 END CTAB
M  END
>  <Molecule ChEMBL ID>
CHEMBL1783041

>  <Smiles>
CCCc1cc(C(=O)C2CCCCC2)ccc1OCCCOc1cccc([C@@H]2SC(=O)NC2=O)c1

>  <IC50_nM>
46

>  <Assay Description>
Displacement of radio-labeled full agonist from PPARgamma receptor

$$$$
CHEMBL519032
Actelion Java MolfileCreator 2.0

  0  0  0  0  0  0              0 V3000
M  V30 BEGIN CTAB
M  V30 COUNTS 31 34 0 0 0
M  V30 BEGIN ATOM
M  V30 1 S 4.1222 -2.9781 0.0 0
M  V30 2 C 4.3301 -2.0 0.0 0
M  V30 3 C 3.1276 -3.0826 0.0 0
M  V30 4 C 5.1961 -1.4999 0.0 0
M  V30 5 C 3.4641 -1.5 0.0 0
M  V30 6 C 2.7209 -2.1691 0.0 0
M  V30 7 C 5.1961 -0.4999 0.0 0
M  V30 8 C 6.0621 -1.9999 0.0 0
M  V30 9 C 3.4641 -0.5 0.0 0
M  V30 10 C 4.3301 0.0 0.0 0
M  V30 11 C 6.9282 -1.5 0.0 0 CFG=2
M  V30 12 O 2.598 0.0 0.0 0
M  V30 13 O 6.9282 -0.5 0.0 0
M  V30 14 C 7.7942 -2.0 0.0 0
M  V30 15 C 1.732 -0.5 0.0 0
M  V30 16 C 6.0621 0.0 0.0 0
M  V30 17 O 7.7942 -3.0 0.0 0
M  V30 18 O 8.6602 -1.5 0.0 0
M  V30 19 C 0.866 0.0 0.0 0
M  V30 20 C 0.0 -0.5 0.0 0
M  V30 21 N -0.9135 -0.0932 0.0 0
M  V30 22 C -0.1045 -1.4945 0.0 0
M  V30 23 C -1.5826 -0.8364 0.0 0
M  V30 24 O -1.0826 -1.7024 0.0 0
M  V30 25 C 0.6386 -2.1636 0.0 0
M  V30 26 C -2.5771 -0.7318 0.0 0
M  V30 27 C -2.9839 0.1816 0.0 0
M  V30 28 C -3.1649 -1.5408 0.0 0
M  V30 29 C -3.9784 0.2861 0.0 0
M  V30 30 C -4.1595 -1.4363 0.0 0
M  V30 31 C -4.5662 -0.5228 0.0 0
M  V30 END ATOM
M  V30 BEGIN BOND
M  V30 1 1 1 2
M  V30 2 1 1 3
M  V30 3 2 2 4
M  V30 4 1 2 5
M  V30 5 2 3 6
M  V30 6 1 4 7
M  V30 7 1 4 8
M  V30 8 2 5 9
M  V30 9 2 7 10
M  V30 10 1 8 11
M  V30 11 1 9 12
M  V30 12 1 11 13 CFG=3
M  V30 13 1 11 14
M  V30 14 1 12 15
M  V30 15 1 13 16
M  V30 16 2 14 17
M  V30 17 1 14 18
M  V30 18 1 15 19
M  V30 19 1 19 20
M  V30 20 1 20 21
M  V30 21 2 20 22
M  V30 22 2 21 23
M  V30 23 1 22 24
M  V30 24 1 22 25
M  V30 25 1 23 26
M  V30 26 2 26 27
M  V30 27 1 26 28
M  V30 28 1 27 29
M  V30 29 2 28 30
M  V30 30 2 29 31
M  V30 31 1 5 6
M  V30 32 1 9 10
M  V30 33 1 23 24
M  V30 34 1 30 31
M  V30 END BOND
M  V30 BEGIN COLLECTION
M  V30 MDLV30/STERAC1 ATOMS=(1 11)
M  V30 END COLLECTION
M  V30 END CTAB
M  END
>  <Molecule ChEMBL ID>
CHEMBL519032

>  <Smiles>
COC(Cc1ccc(OCCc2nc(-c3ccccc3)oc2C)c2ccsc12)C(=O)O

>  <IC50_nM>
46

>  <Assay Description>
Displacement of radio labeled 2(S)-(2-benzoyl-phenylamino)-3-{4-[1,1-ditritio-2-(5-methyl-2-phenyl-oxazol-4-yl)-ethoxy]-phenyl}-propionic acid from GST-fused human PPARgamma expressed in Escherichia coli BL21 cells by scintillation proximity assay

$$$$
CHEMBL241471
Actelion Java MolfileCreator 2.0

  0  0  0  0  0  0              0 V3000
M  V30 BEGIN CTAB
M  V30 COUNTS 32 34 0 0 0
M  V30 BEGIN ATOM
M  V30 1 O 8.6602 -4.5 0.0 0
M  V30 2 C 8.6602 -3.5 0.0 0
M  V30 3 O 9.5262 -3.0 0.0 0
M  V30 4 C 7.7942 -3.0 0.0 0
M  V30 5 C 7.7942 -2.0 0.0 0
M  V30 6 C 6.9282 -1.5 0.0 0
M  V30 7 C 6.9282 -0.5 0.0 0
M  V30 8 C 6.0621 -2.0 0.0 0
M  V30 9 C 6.0621 0.0 0.0 0
M  V30 10 C 7.7942 0.0 0.0 0
M  V30 11 C 5.1961 -1.5 0.0 0
M  V30 12 C 5.1961 -0.5 0.0 0
M  V30 13 O 4.3301 0.0 0.0 0
M  V30 14 C 3.4641 -0.5 0.0 0
M  V30 15 C 2.598 0.0 0.0 0
M  V30 16 C 1.732 -0.5 0.0 0 CFG=2
M  V30 17 O 0.866 0.0 0.0 0
M  V30 18 C 1.732 -1.5 0.0 0
M  V30 19 C 0.0 -0.5 0.0 0
M  V30 20 C -0.866 0.0 0.0 0
M  V30 21 C 0.0 -1.4999 0.0 0
M  V30 22 C -0.866 1.0 0.0 0
M  V30 23 C -1.732 -0.4999 0.0 0
M  V30 24 C -0.866 -1.9999 0.0 0
M  V30 25 N 0.0 1.4999 0.0 0
M  V30 26 C -1.732 1.5 0.0 0
M  V30 27 C -1.732 -1.4999 0.0 0
M  V30 28 C 0.0 2.4999 0.0 0
M  V30 29 C -1.732 2.5 0.0 0
M  V30 30 C -2.598 -1.9999 0.0 0
M  V30 31 C -0.866 3.0 0.0 0
M  V30 32 C -2.598 -2.9999 0.0 0
M  V30 END ATOM
M  V30 BEGIN BOND
M  V30 1 2 1 2
M  V30 2 1 2 3
M  V30 3 1 2 4
M  V30 4 1 4 5
M  V30 5 1 5 6
M  V30 6 2 6 7
M  V30 7 1 6 8
M  V30 8 1 7 9
M  V30 9 1 7 10
M  V30 10 2 8 11
M  V30 11 2 9 12
M  V30 12 1 12 13
M  V30 13 1 13 14
M  V30 14 1 14 15
M  V30 15 1 15 16
M  V30 16 1 16 17
M  V30 17 1 16 18 CFG=1
M  V30 18 1 17 19
M  V30 19 2 19 20
M  V30 20 1 19 21
M  V30 21 1 20 22
M  V30 22 1 20 23
M  V30 23 2 21 24
M  V30 24 2 22 25
M  V30 25 1 22 26
M  V30 26 2 23 27
M  V30 27 1 25 28
M  V30 28 2 26 29
M  V30 29 1 27 30
M  V30 30 2 28 31
M  V30 31 1 30 32
M  V30 32 1 11 12
M  V30 33 1 24 27
M  V30 34 1 29 31
M  V30 END BOND
M  V30 BEGIN COLLECTION
M  V30 MDLV30/STEABS ATOMS=(1 16)
M  V30 END COLLECTION
M  V30 END CTAB
M  END
>  <Molecule ChEMBL ID>
CHEMBL241471

>  <Smiles>
CCc1ccc(O[C@H](C)CCOc2ccc(CCC(=O)O)c(C)c2)c(-c2ccccn2)c1

>  <IC50_nM>
46.03

>  <Assay Description>
Agonist activity at PPARgamma

$$$$
CHEMBL237305
Actelion Java MolfileCreator 2.0

  0  0  0  0  0  0              0 V3000
M  V30 BEGIN CTAB
M  V30 COUNTS 37 39 0 0 0
M  V30 BEGIN ATOM
M  V30 1 F 10.5932 -4.5 0.0 0
M  V30 2 C 9.0932 -4.5 0.0 0
M  V30 3 F 9.0932 -6.0 0.0 0
M  V30 4 F 7.5932 -4.5 0.0 0
M  V30 5 O 9.0932 -3.0 0.0 0
M  V30 6 C 7.7942 -2.25 0.0 0
M  V30 7 C 7.7942 -0.75 0.0 0
M  V30 8 C 6.4951 -3.0 0.0 0
M  V30 9 C 6.4951 0.0 0.0 0
M  V30 10 C 5.1961 -2.25 0.0 0
M  V30 11 C 5.1961 -0.75 0.0 0
M  V30 12 C 6.4951 1.5 0.0 0
M  V30 13 C 3.8971 0.0 0.0 0
M  V30 14 O 3.8971 1.5 0.0 0
M  V30 15 N 2.598 -0.75 0.0 0
M  V30 16 C 1.299 0.0 0.0 0
M  V30 17 C 0.0 -0.75 0.0 0
M  V30 18 C -1.299 0.0 0.0 0
M  V30 19 C 0.0 -2.25 0.0 0
M  V30 20 C -2.598 -0.75 0.0 0
M  V30 21 C -1.299 -3.0 0.0 0
M  V30 22 O -3.8971 0.0 0.0 0
M  V30 23 C -2.598 -2.25 0.0 0
M  V30 24 C -5.1961 -0.75 0.0 0
M  V30 25 C -6.4951 0.0 0.0 0
M  V30 26 C -5.1961 -2.25 0.0 0
M  V30 27 C -7.7942 -0.75 0.0 0
M  V30 28 C -6.4951 -3.0 0.0 0
M  V30 29 C -7.7942 -2.25 0.0 0
M  V30 30 C -9.0932 0.0 0.0 0
M  V30 31 O -9.0932 -3.0 0.0 0
M  V30 32 C -9.0932 -4.5 0.0 0
M  V30 33 C -10.3923 -5.25 0.0 0
M  V30 34 C -8.3433 -5.799 0.0 0
M  V30 35 C -7.5933 -4.4999 0.0 0
M  V30 36 O -11.6913 -4.5 0.0 0
M  V30 37 O -10.3923 -6.75 0.0 0
M  V30 END ATOM
M  V30 BEGIN BOND
M  V30 1 1 1 2
M  V30 2 1 2 3
M  V30 3 1 2 4
M  V30 4 1 2 5
M  V30 5 1 5 6
M  V30 6 2 6 7
M  V30 7 1 6 8
M  V30 8 1 7 9
M  V30 9 2 8 10
M  V30 10 2 9 11
M  V30 11 1 9 12
M  V30 12 1 11 13
M  V30 13 2 13 14
M  V30 14 1 13 15
M  V30 15 1 15 16
M  V30 16 1 16 17
M  V30 17 2 17 18
M  V30 18 1 17 19
M  V30 19 1 18 20
M  V30 20 2 19 21
M  V30 21 1 20 22
M  V30 22 2 20 23
M  V30 23 1 22 24
M  V30 24 2 24 25
M  V30 25 1 24 26
M  V30 26 1 25 27
M  V30 27 2 26 28
M  V30 28 2 27 29
M  V30 29 1 27 30
M  V30 30 1 29 31
M  V30 31 1 31 32
M  V30 32 1 32 33
M  V30 33 1 32 34
M  V30 34 1 32 35
M  V30 35 2 33 36
M  V30 36 1 33 37
M  V30 37 1 10 11
M  V30 38 1 21 23
M  V30 39 1 28 29
M  V30 END BOND
M  V30 END CTAB
M  END
>  <Molecule ChEMBL ID>
CHEMBL237305

>  <Smiles>
Cc1cc(Oc2cccc(CNC(=O)c3ccc(OC(F)(F)F)cc3C)c2)ccc1OC(C)(C)C(=O)O

>  <IC50_nM>
46.99

>  <Assay Description>
Agonist activity at PPARgamma

$$$$
CHEMBL220622
Actelion Java MolfileCreator 2.0

  0  0  0  0  0  0              0 V3000
M  V30 BEGIN CTAB
M  V30 COUNTS 40 43 0 0 0
M  V30 BEGIN ATOM
M  V30 1 O 2.598 1.0 0.0 0
M  V30 2 C 2.598 0.0 0.0 0
M  V30 3 O 3.4641 -0.5 0.0 0
M  V30 4 N 1.732 -0.5 0.0 0
M  V30 5 C 4.3301 0.0 0.0 0
M  V30 6 C 0.866 0.0 0.0 0
M  V30 7 C 5.1961 -0.5 0.0 0
M  V30 8 C 4.3301 1.0 0.0 0
M  V30 9 C 0.0 -0.5 0.0 0
M  V30 10 C -0.866 0.0 0.0 0
M  V30 11 C 0.0 -1.4999 0.0 0
M  V30 12 C -1.732 -0.4999 0.0 0
M  V30 13 C -0.866 1.0 0.0 0
M  V30 14 C -0.866 -1.9999 0.0 0
M  V30 15 C -1.732 -1.4999 0.0 0
M  V30 16 C -1.732 1.5 0.0 0
M  V30 17 O -0.866 -2.9999 0.0 0
M  V30 18 C -1.732 2.5 0.0 0
M  V30 19 C 0.0 -3.4999 0.0 0
M  V30 20 O -0.866 3.0 0.0 0
M  V30 21 O -2.598 3.0 0.0 0
M  V30 22 C 0.0 -4.4999 0.0 0
M  V30 23 C 0.866 -5.0 0.0 0
M  V30 24 N 0.9705 -5.9945 0.0 0
M  V30 25 C 1.7795 -4.5932 0.0 0
M  V30 26 C 1.9487 -6.2024 0.0 0
M  V30 27 O 2.4487 -5.3364 0.0 0
M  V30 28 C 1.9874 -3.6151 0.0 0
M  V30 29 C 2.3554 -7.1159 0.0 0
M  V30 30 C 1.7676 -7.9249 0.0 0
M  V30 31 C 3.3499 -7.2205 0.0 0
M  V30 32 C 2.1743 -8.8385 0.0 0
M  V30 33 C 3.7566 -8.134 0.0 0
M  V30 34 C 3.1689 -8.943 0.0 0
M  V30 35 C 3.5756 -9.8566 0.0 0
M  V30 36 C 2.9878 -10.6656 0.0 0
M  V30 37 C 4.5701 -9.9611 0.0 0
M  V30 38 C 3.3945 -11.5791 0.0 0
M  V30 39 C 4.9769 -10.8746 0.0 0
M  V30 40 C 4.3891 -11.6837 0.0 0
M  V30 END ATOM
M  V30 BEGIN BOND
M  V30 1 2 1 2
M  V30 2 1 2 3
M  V30 3 1 2 4
M  V30 4 1 3 5
M  V30 5 1 4 6
M  V30 6 1 5 7
M  V30 7 1 5 8
M  V30 8 1 6 9
M  V30 9 2 9 10
M  V30 10 1 9 11
M  V30 11 1 10 12
M  V30 12 1 10 13
M  V30 13 2 11 14
M  V30 14 2 12 15
M  V30 15 1 13 16
M  V30 16 1 14 17
M  V30 17 1 16 18
M  V30 18 1 17 19
M  V30 19 2 18 20
M  V30 20 1 18 21
M  V30 21 1 19 22
M  V30 22 1 22 23
M  V30 23 1 23 24
M  V30 24 2 23 25
M  V30 25 2 24 26
M  V30 26 1 25 27
M  V30 27 1 25 28
M  V30 28 1 26 29
M  V30 29 2 29 30
M  V30 30 1 29 31
M  V30 31 1 30 32
M  V30 32 2 31 33
M  V30 33 2 32 34
M  V30 34 1 34 35
M  V30 35 2 35 36
M  V30 36 1 35 37
M  V30 37 1 36 38
M  V30 38 2 37 39
M  V30 39 2 38 40
M  V30 40 1 14 15
M  V30 41 1 26 27
M  V30 42 1 33 34
M  V30 43 1 39 40
M  V30 END BOND
M  V30 END CTAB
M  END
>  <Molecule ChEMBL ID>
CHEMBL220622

>  <Smiles>
Cc1oc(-c2ccc(-c3ccccc3)cc2)nc1CCOc1ccc(CCC(=O)O)c(CNC(=O)OC(C)C)c1

>  <IC50_nM>
47

>  <Assay Description>
Displacement of tritium labeled ligand from human PPARgamma by SPA assay

$$$$
CHEMBL237305
Actelion Java MolfileCreator 2.0

  0  0  0  0  0  0              0 V3000
M  V30 BEGIN CTAB
M  V30 COUNTS 37 39 0 0 0
M  V30 BEGIN ATOM
M  V30 1 F 10.5932 -4.5 0.0 0
M  V30 2 C 9.0932 -4.5 0.0 0
M  V30 3 F 9.0932 -6.0 0.0 0
M  V30 4 F 7.5932 -4.5 0.0 0
M  V30 5 O 9.0932 -3.0 0.0 0
M  V30 6 C 7.7942 -2.25 0.0 0
M  V30 7 C 7.7942 -0.75 0.0 0
M  V30 8 C 6.4951 -3.0 0.0 0
M  V30 9 C 6.4951 0.0 0.0 0
M  V30 10 C 5.1961 -2.25 0.0 0
M  V30 11 C 5.1961 -0.75 0.0 0
M  V30 12 C 6.4951 1.5 0.0 0
M  V30 13 C 3.8971 0.0 0.0 0
M  V30 14 O 3.8971 1.5 0.0 0
M  V30 15 N 2.598 -0.75 0.0 0
M  V30 16 C 1.299 0.0 0.0 0
M  V30 17 C 0.0 -0.75 0.0 0
M  V30 18 C -1.299 0.0 0.0 0
M  V30 19 C 0.0 -2.25 0.0 0
M  V30 20 C -2.598 -0.75 0.0 0
M  V30 21 C -1.299 -3.0 0.0 0
M  V30 22 O -3.8971 0.0 0.0 0
M  V30 23 C -2.598 -2.25 0.0 0
M  V30 24 C -5.1961 -0.75 0.0 0
M  V30 25 C -6.4951 0.0 0.0 0
M  V30 26 C -5.1961 -2.25 0.0 0
M  V30 27 C -7.7942 -0.75 0.0 0
M  V30 28 C -6.4951 -3.0 0.0 0
M  V30 29 C -7.7942 -2.25 0.0 0
M  V30 30 C -9.0932 0.0 0.0 0
M  V30 31 O -9.0932 -3.0 0.0 0
M  V30 32 C -9.0932 -4.5 0.0 0
M  V30 33 C -10.3923 -5.25 0.0 0
M  V30 34 C -8.3433 -5.799 0.0 0
M  V30 35 C -7.5933 -4.4999 0.0 0
M  V30 36 O -11.6913 -4.5 0.0 0
M  V30 37 O -10.3923 -6.75 0.0 0
M  V30 END ATOM
M  V30 BEGIN BOND
M  V30 1 1 1 2
M  V30 2 1 2 3
M  V30 3 1 2 4
M  V30 4 1 2 5
M  V30 5 1 5 6
M  V30 6 2 6 7
M  V30 7 1 6 8
M  V30 8 1 7 9
M  V30 9 2 8 10
M  V30 10 2 9 11
M  V30 11 1 9 12
M  V30 12 1 11 13
M  V30 13 2 13 14
M  V30 14 1 13 15
M  V30 15 1 15 16
M  V30 16 1 16 17
M  V30 17 2 17 18
M  V30 18 1 17 19
M  V30 19 1 18 20
M  V30 20 2 19 21
M  V30 21 1 20 22
M  V30 22 2 20 23
M  V30 23 1 22 24
M  V30 24 2 24 25
M  V30 25 1 24 26
M  V30 26 1 25 27
M  V30 27 2 26 28
M  V30 28 2 27 29
M  V30 29 1 27 30
M  V30 30 1 29 31
M  V30 31 1 31 32
M  V30 32 1 32 33
M  V30 33 1 32 34
M  V30 34 1 32 35
M  V30 35 2 33 36
M  V30 36 1 33 37
M  V30 37 1 10 11
M  V30 38 1 21 23
M  V30 39 1 28 29
M  V30 END BOND
M  V30 END CTAB
M  END
>  <Molecule ChEMBL ID>
CHEMBL237305

>  <Smiles>
Cc1cc(Oc2cccc(CNC(=O)c3ccc(OC(F)(F)F)cc3C)c2)ccc1OC(C)(C)C(=O)O

>  <IC50_nM>
47

>  <Assay Description>
Displacement of [3H]2-methyl-2-(4-{3-{propyl-(5-pyridin-2-yl-thiophene-2-sulfonyl)-amino}-propyl}-phenoxy)-propionic acid from human PPARgamma

$$$$
CHEMBL220622
Actelion Java MolfileCreator 2.0

  0  0  0  0  0  0              0 V3000
M  V30 BEGIN CTAB
M  V30 COUNTS 40 43 0 0 0
M  V30 BEGIN ATOM
M  V30 1 O 2.598 1.0 0.0 0
M  V30 2 C 2.598 0.0 0.0 0
M  V30 3 O 3.4641 -0.5 0.0 0
M  V30 4 N 1.732 -0.5 0.0 0
M  V30 5 C 4.3301 0.0 0.0 0
M  V30 6 C 0.866 0.0 0.0 0
M  V30 7 C 5.1961 -0.5 0.0 0
M  V30 8 C 4.3301 1.0 0.0 0
M  V30 9 C 0.0 -0.5 0.0 0
M  V30 10 C -0.866 0.0 0.0 0
M  V30 11 C 0.0 -1.4999 0.0 0
M  V30 12 C -1.732 -0.4999 0.0 0
M  V30 13 C -0.866 1.0 0.0 0
M  V30 14 C -0.866 -1.9999 0.0 0
M  V30 15 C -1.732 -1.4999 0.0 0
M  V30 16 C -1.732 1.5 0.0 0
M  V30 17 O -0.866 -2.9999 0.0 0
M  V30 18 C -1.732 2.5 0.0 0
M  V30 19 C 0.0 -3.4999 0.0 0
M  V30 20 O -0.866 3.0 0.0 0
M  V30 21 O -2.598 3.0 0.0 0
M  V30 22 C 0.0 -4.4999 0.0 0
M  V30 23 C 0.866 -5.0 0.0 0
M  V30 24 N 0.9705 -5.9945 0.0 0
M  V30 25 C 1.7795 -4.5932 0.0 0
M  V30 26 C 1.9487 -6.2024 0.0 0
M  V30 27 O 2.4487 -5.3364 0.0 0
M  V30 28 C 1.9874 -3.6151 0.0 0
M  V30 29 C 2.3554 -7.1159 0.0 0
M  V30 30 C 1.7676 -7.9249 0.0 0
M  V30 31 C 3.3499 -7.2205 0.0 0
M  V30 32 C 2.1743 -8.8385 0.0 0
M  V30 33 C 3.7566 -8.134 0.0 0
M  V30 34 C 3.1689 -8.943 0.0 0
M  V30 35 C 3.5756 -9.8566 0.0 0
M  V30 36 C 2.9878 -10.6656 0.0 0
M  V30 37 C 4.5701 -9.9611 0.0 0
M  V30 38 C 3.3945 -11.5791 0.0 0
M  V30 39 C 4.9769 -10.8746 0.0 0
M  V30 40 C 4.3891 -11.6837 0.0 0
M  V30 END ATOM
M  V30 BEGIN BOND
M  V30 1 2 1 2
M  V30 2 1 2 3
M  V30 3 1 2 4
M  V30 4 1 3 5
M  V30 5 1 4 6
M  V30 6 1 5 7
M  V30 7 1 5 8
M  V30 8 1 6 9
M  V30 9 2 9 10
M  V30 10 1 9 11
M  V30 11 1 10 12
M  V30 12 1 10 13
M  V30 13 2 11 14
M  V30 14 2 12 15
M  V30 15 1 13 16
M  V30 16 1 14 17
M  V30 17 1 16 18
M  V30 18 1 17 19
M  V30 19 2 18 20
M  V30 20 1 18 21
M  V30 21 1 19 22
M  V30 22 1 22 23
M  V30 23 1 23 24
M  V30 24 2 23 25
M  V30 25 2 24 26
M  V30 26 1 25 27
M  V30 27 1 25 28
M  V30 28 1 26 29
M  V30 29 2 29 30
M  V30 30 1 29 31
M  V30 31 1 30 32
M  V30 32 2 31 33
M  V30 33 2 32 34
M  V30 34 1 34 35
M  V30 35 2 35 36
M  V30 36 1 35 37
M  V30 37 1 36 38
M  V30 38 2 37 39
M  V30 39 2 38 40
M  V30 40 1 14 15
M  V30 41 1 26 27
M  V30 42 1 33 34
M  V30 43 1 39 40
M  V30 END BOND
M  V30 END CTAB
M  END
>  <Molecule ChEMBL ID>
CHEMBL220622

>  <Smiles>
Cc1oc(-c2ccc(-c3ccccc3)cc2)nc1CCOc1ccc(CCC(=O)O)c(CNC(=O)OC(C)C)c1

>  <IC50_nM>
47

>  <Assay Description>
Displacement of [3H]2-methyl-2-(4-{3-propyl-(5-pyridin-2yl-thiophene-2-sulfonyl)-amino]-pro-pyl}-phenoxy)-propionic acid from human PPARgamma

$$$$
CHEMBL1783033
Actelion Java MolfileCreator 2.0

  0  0  0  0  0  0              0 V3000
M  V30 BEGIN CTAB
M  V30 COUNTS 31 32 0 0 0
M  V30 BEGIN ATOM
M  V30 1 Cl 6.0621 1.0 0.0 0
M  V30 2 C 6.0621 0.0 0.0 0
M  V30 3 C 5.1961 -0.5 0.0 0
M  V30 4 C 6.9282 -0.4999 0.0 0
M  V30 5 S 4.3301 0.0 0.0 0
M  V30 6 C 5.1961 -1.4999 0.0 0
M  V30 7 C 6.9282 -1.4999 0.0 0
M  V30 8 C 3.4641 -0.5 0.0 0
M  V30 9 C 6.0621 -1.9999 0.0 0
M  V30 10 C 7.7942 -1.9999 0.0 0
M  V30 11 C 2.598 0.0 0.0 0
M  V30 12 C 7.7942 -2.9999 0.0 0
M  V30 13 C 1.732 -0.5 0.0 0
M  V30 14 O 6.9282 -3.4999 0.0 0
M  V30 15 O 8.6602 -3.4999 0.0 0
M  V30 16 O 0.866 0.0 0.0 0
M  V30 17 C 0.0 -0.5 0.0 0
M  V30 18 C -0.866 0.0 0.0 0
M  V30 19 C 0.0 -1.4999 0.0 0
M  V30 20 C -1.732 -0.4999 0.0 0
M  V30 21 C -0.866 1.0 0.0 0
M  V30 22 C -0.866 -1.9999 0.0 0
M  V30 23 O -2.598 0.0 0.0 0
M  V30 24 C -1.732 -1.4999 0.0 0
M  V30 25 C 0.0 1.5 0.0 0
M  V30 26 C -2.598 -1.9999 0.0 0
M  V30 27 C 0.0 2.5 0.0 0
M  V30 28 N -3.4641 -1.4999 0.0 0
M  V30 29 C -2.598 -2.9999 0.0 0
M  V30 30 O -3.4641 -0.4999 0.0 0
M  V30 31 C -1.732 -3.4999 0.0 0
M  V30 END ATOM
M  V30 BEGIN BOND
M  V30 1 1 1 2
M  V30 2 2 2 3
M  V30 3 1 2 4
M  V30 4 1 3 5
M  V30 5 1 3 6
M  V30 6 2 4 7
M  V30 7 1 5 8
M  V30 8 2 6 9
M  V30 9 1 7 10
M  V30 10 1 8 11
M  V30 11 1 10 12
M  V30 12 1 11 13
M  V30 13 2 12 14
M  V30 14 1 12 15
M  V30 15 1 13 16
M  V30 16 1 16 17
M  V30 17 2 17 18
M  V30 18 1 17 19
M  V30 19 1 18 20
M  V30 20 1 18 21
M  V30 21 2 19 22
M  V30 22 1 20 23
M  V30 23 2 20 24
M  V30 24 1 21 25
M  V30 25 1 24 26
M  V30 26 1 25 27
M  V30 27 2 26 28
M  V30 28 1 26 29
M  V30 29 1 28 30
M  V30 30 1 29 31
M  V30 31 1 7 9
M  V30 32 1 22 24
M  V30 END BOND
M  V30 END CTAB
M  END
>  <Molecule ChEMBL ID>
CHEMBL1783033

>  <Smiles>
CCCc1c(OCCCSc2ccc(CC(=O)O)cc2Cl)ccc(/C(CC)=N\O)c1O

>  <IC50_nM>
47.97

>  <Assay Description>
Agonist activity at PPARgamma

$$$$
CHEMBL23874
Actelion Java MolfileCreator 2.0

  0  0  0  0  0  0              0 V3000
M  V30 BEGIN CTAB
M  V30 COUNTS 31 32 0 0 0
M  V30 BEGIN ATOM
M  V30 1 Cl 6.0621 1.0 0.0 0
M  V30 2 C 6.0621 0.0 0.0 0
M  V30 3 C 5.1961 -0.5 0.0 0
M  V30 4 C 6.9282 -0.4999 0.0 0
M  V30 5 S 4.3301 0.0 0.0 0
M  V30 6 C 5.1961 -1.4999 0.0 0
M  V30 7 C 6.9282 -1.4999 0.0 0
M  V30 8 C 3.4641 -0.5 0.0 0
M  V30 9 C 6.0621 -1.9999 0.0 0
M  V30 10 C 7.7942 -1.9999 0.0 0
M  V30 11 C 2.598 0.0 0.0 0
M  V30 12 C 7.7942 -2.9999 0.0 0
M  V30 13 C 1.732 -0.5 0.0 0
M  V30 14 O 6.9282 -3.4999 0.0 0
M  V30 15 O 8.6602 -3.4999 0.0 0
M  V30 16 O 0.866 0.0 0.0 0
M  V30 17 C 0.0 -0.5 0.0 0
M  V30 18 C -0.866 0.0 0.0 0
M  V30 19 C 0.0 -1.4999 0.0 0
M  V30 20 C -1.732 -0.4999 0.0 0
M  V30 21 C -0.866 1.0 0.0 0
M  V30 22 C -0.866 -1.9999 0.0 0
M  V30 23 O -2.598 0.0 0.0 0
M  V30 24 C -1.732 -1.4999 0.0 0
M  V30 25 C 0.0 1.5 0.0 0
M  V30 26 C -2.598 -1.9999 0.0 0
M  V30 27 C 0.0 2.5 0.0 0
M  V30 28 N -3.4641 -1.4999 0.0 0
M  V30 29 C -2.598 -2.9999 0.0 0
M  V30 30 O -4.3301 -2.0 0.0 0
M  V30 31 C -1.732 -3.4999 0.0 0
M  V30 END ATOM
M  V30 BEGIN BOND
M  V30 1 1 1 2
M  V30 2 2 2 3
M  V30 3 1 2 4
M  V30 4 1 3 5
M  V30 5 1 3 6
M  V30 6 2 4 7
M  V30 7 1 5 8
M  V30 8 2 6 9
M  V30 9 1 7 10
M  V30 10 1 8 11
M  V30 11 1 10 12
M  V30 12 1 11 13
M  V30 13 2 12 14
M  V30 14 1 12 15
M  V30 15 1 13 16
M  V30 16 1 16 17
M  V30 17 2 17 18
M  V30 18 1 17 19
M  V30 19 1 18 20
M  V30 20 1 18 21
M  V30 21 2 19 22
M  V30 22 1 20 23
M  V30 23 2 20 24
M  V30 24 1 21 25
M  V30 25 1 24 26
M  V30 26 1 25 27
M  V30 27 2 26 28
M  V30 28 1 26 29
M  V30 29 1 28 30
M  V30 30 1 29 31
M  V30 31 1 7 9
M  V30 32 1 22 24
M  V30 END BOND
M  V30 END CTAB
M  END
>  <Molecule ChEMBL ID>
CHEMBL23874

>  <Smiles>
CCCc1c(OCCCSc2ccc(CC(=O)O)cc2Cl)ccc(/C(CC)=N/O)c1O

>  <IC50_nM>
48

>  <Assay Description>
In vitro binding affinity for human PPAR gamma in SPA

$$$$
CHEMBL1783033
Actelion Java MolfileCreator 2.0

  0  0  0  0  0  0              0 V3000
M  V30 BEGIN CTAB
M  V30 COUNTS 31 32 0 0 0
M  V30 BEGIN ATOM
M  V30 1 Cl 6.0621 1.0 0.0 0
M  V30 2 C 6.0621 0.0 0.0 0
M  V30 3 C 5.1961 -0.5 0.0 0
M  V30 4 C 6.9282 -0.4999 0.0 0
M  V30 5 S 4.3301 0.0 0.0 0
M  V30 6 C 5.1961 -1.4999 0.0 0
M  V30 7 C 6.9282 -1.4999 0.0 0
M  V30 8 C 3.4641 -0.5 0.0 0
M  V30 9 C 6.0621 -1.9999 0.0 0
M  V30 10 C 7.7942 -1.9999 0.0 0
M  V30 11 C 2.598 0.0 0.0 0
M  V30 12 C 7.7942 -2.9999 0.0 0
M  V30 13 C 1.732 -0.5 0.0 0
M  V30 14 O 6.9282 -3.4999 0.0 0
M  V30 15 O 8.6602 -3.4999 0.0 0
M  V30 16 O 0.866 0.0 0.0 0
M  V30 17 C 0.0 -0.5 0.0 0
M  V30 18 C -0.866 0.0 0.0 0
M  V30 19 C 0.0 -1.4999 0.0 0
M  V30 20 C -1.732 -0.4999 0.0 0
M  V30 21 C -0.866 1.0 0.0 0
M  V30 22 C -0.866 -1.9999 0.0 0
M  V30 23 O -2.598 0.0 0.0 0
M  V30 24 C -1.732 -1.4999 0.0 0
M  V30 25 C 0.0 1.5 0.0 0
M  V30 26 C -2.598 -1.9999 0.0 0
M  V30 27 C 0.0 2.5 0.0 0
M  V30 28 N -3.4641 -1.4999 0.0 0
M  V30 29 C -2.598 -2.9999 0.0 0
M  V30 30 O -3.4641 -0.4999 0.0 0
M  V30 31 C -1.732 -3.4999 0.0 0
M  V30 END ATOM
M  V30 BEGIN BOND
M  V30 1 1 1 2
M  V30 2 2 2 3
M  V30 3 1 2 4
M  V30 4 1 3 5
M  V30 5 1 3 6
M  V30 6 2 4 7
M  V30 7 1 5 8
M  V30 8 2 6 9
M  V30 9 1 7 10
M  V30 10 1 8 11
M  V30 11 1 10 12
M  V30 12 1 11 13
M  V30 13 2 12 14
M  V30 14 1 12 15
M  V30 15 1 13 16
M  V30 16 1 16 17
M  V30 17 2 17 18
M  V30 18 1 17 19
M  V30 19 1 18 20
M  V30 20 1 18 21
M  V30 21 2 19 22
M  V30 22 1 20 23
M  V30 23 2 20 24
M  V30 24 1 21 25
M  V30 25 1 24 26
M  V30 26 1 25 27
M  V30 27 2 26 28
M  V30 28 1 26 29
M  V30 29 1 28 30
M  V30 30 1 29 31
M  V30 31 1 7 9
M  V30 32 1 22 24
M  V30 END BOND
M  V30 END CTAB
M  END
>  <Molecule ChEMBL ID>
CHEMBL1783033

>  <Smiles>
CCCc1c(OCCCSc2ccc(CC(=O)O)cc2Cl)ccc(/C(CC)=N\O)c1O

>  <IC50_nM>
48

>  <Assay Description>
Displacement of radio-labeled full agonist from PPARgamma receptor

$$$$
CHEMBL4439373
Actelion Java MolfileCreator 2.0

  0  0  0  0  0  0              0 V3000
M  V30 BEGIN CTAB
M  V30 COUNTS 39 43 0 0 0
M  V30 BEGIN ATOM
M  V30 1 O 11.1837 5.7369 0.0 0
M  V30 2 C 10.8747 4.7859 0.0 0
M  V30 3 O 9.8965 4.578 0.0 0
M  V30 4 C 11.5438 4.0427 0.0 0
M  V30 5 C 11.2348 3.0917 0.0 0
M  V30 6 C 12.522 4.2506 0.0 0
M  V30 7 C 10.2566 2.8838 0.0 0
M  V30 8 C 11.9039 2.3485 0.0 0
M  V30 9 C 13.1911 3.5075 0.0 0
M  V30 10 C 9.5875 3.6269 0.0 0
M  V30 11 C 9.9476 1.9327 0.0 0
M  V30 12 C 12.8821 2.5564 0.0 0
M  V30 13 C 8.6094 3.419 0.0 0
M  V30 14 C 8.9695 1.7248 0.0 0
M  V30 15 C 8.3003 2.4679 0.0 0
M  V30 16 C 7.3222 2.26 0.0 0
M  V30 17 N 7.0132 1.309 0.0 0
M  V30 18 C 6.0621 0.9999 0.0 0
M  V30 19 C 7.601 0.5 0.0 0
M  V30 20 C 6.0621 0.0 0.0 0
M  V30 21 C 5.1961 1.4999 0.0 0
M  V30 22 C 7.0132 -0.309 0.0 0
M  V30 23 C 8.601 0.5 0.0 0
M  V30 24 C 5.1961 -0.5 0.0 0
M  V30 25 C 4.3301 0.9999 0.0 0
M  V30 26 C 7.3222 -1.26 0.0 0
M  V30 27 C 4.3301 0.0 0.0 0
M  V30 28 C 3.4641 -0.5 0.0 0
M  V30 29 O 3.4641 -1.5 0.0 0
M  V30 30 N 2.598 0.0 0.0 0
M  V30 31 C 1.732 -0.5 0.0 0
M  V30 32 C 0.866 0.0 0.0 0
M  V30 33 C 0.0 -0.5 0.0 0
M  V30 34 C -0.866 0.0 0.0 0
M  V30 35 C 0.0 -1.4999 0.0 0
M  V30 36 C -1.732 -0.4999 0.0 0
M  V30 37 C -0.866 -1.9999 0.0 0
M  V30 38 C -1.732 -1.4999 0.0 0
M  V30 39 O -2.598 -1.9999 0.0 0
M  V30 END ATOM
M  V30 BEGIN BOND
M  V30 1 2 1 2
M  V30 2 1 2 3
M  V30 3 1 2 4
M  V30 4 2 4 5
M  V30 5 1 4 6
M  V30 6 1 5 7
M  V30 7 1 5 8
M  V30 8 2 6 9
M  V30 9 2 7 10
M  V30 10 1 7 11
M  V30 11 2 8 12
M  V30 12 1 10 13
M  V30 13 2 11 14
M  V30 14 2 13 15
M  V30 15 1 15 16
M  V30 16 1 16 17
M  V30 17 1 17 18
M  V30 18 1 17 19
M  V30 19 2 18 20
M  V30 20 1 18 21
M  V30 21 2 19 22
M  V30 22 1 19 23
M  V30 23 1 20 24
M  V30 24 2 21 25
M  V30 25 1 22 26
M  V30 26 2 24 27
M  V30 27 1 27 28
M  V30 28 2 28 29
M  V30 29 1 28 30
M  V30 30 1 30 31
M  V30 31 1 31 32
M  V30 32 1 32 33
M  V30 33 2 33 34
M  V30 34 1 33 35
M  V30 35 1 34 36
M  V30 36 2 35 37
M  V30 37 2 36 38
M  V30 38 1 38 39
M  V30 39 1 9 12
M  V30 40 1 14 15
M  V30 41 1 20 22
M  V30 42 1 25 27
M  V30 43 1 37 38
M  V30 END BOND
M  V30 END CTAB
M  END
>  <Molecule ChEMBL ID>
CHEMBL4439373

>  <Smiles>
Cc1c(C)n(Cc2ccc(-c3ccccc3C(=O)O)cc2)c2ccc(C(=O)NCCc3ccc(O)cc3)cc12

>  <IC50_nM>
48

>  <Assay Description>
Displacement of fluormone PPAR green tracer ligand from recombinant GST-tagged PPARgamma ligand binding domain (unknown origin) incubated for 4 hrs by competitive fluorescence polarization binding assay

$$$$
CHEMBL4586093
Actelion Java MolfileCreator 2.0

  0  0  0  0  0  0              0 V3000
M  V30 BEGIN CTAB
M  V30 COUNTS 36 39 0 0 0
M  V30 BEGIN ATOM
M  V30 1 F 10.004 -2.0535 0.0 0
M  V30 2 C 10.212 -3.0316 0.0 0
M  V30 3 F 11.1901 -2.8237 0.0 0
M  V30 4 F 10.4199 -4.0098 0.0 0
M  V30 5 C 9.2338 -3.2395 0.0 0
M  V30 6 C 8.5647 -2.4964 0.0 0
M  V30 7 C 8.9248 -4.1906 0.0 0
M  V30 8 C 7.5865 -2.7043 0.0 0
M  V30 9 C 7.9466 -4.3985 0.0 0
M  V30 10 C 7.2775 -3.6554 0.0 0
M  V30 11 C 6.9174 -1.9612 0.0 0
M  V30 12 N 5.9392 -2.1691 0.0 0
M  V30 13 C 5.1961 -1.4999 0.0 0
M  V30 14 C 5.5325 -3.0826 0.0 0
M  V30 15 C 4.3301 -1.9999 0.0 0
M  V30 16 C 5.1961 -0.4999 0.0 0
M  V30 17 C 4.538 -2.9781 0.0 0
M  V30 18 C 6.0325 -3.9487 0.0 0
M  V30 19 C 3.4641 -1.5 0.0 0
M  V30 20 C 4.3301 0.0 0.0 0
M  V30 21 C 3.8689 -3.7212 0.0 0
M  V30 22 C 3.4641 -0.5 0.0 0
M  V30 23 C 2.598 0.0 0.0 0
M  V30 24 O 2.598 1.0 0.0 0
M  V30 25 N 1.732 -0.5 0.0 0
M  V30 26 C 0.866 0.0 0.0 0
M  V30 27 C 0.0 -0.5 0.0 0
M  V30 28 C -0.866 0.0 0.0 0
M  V30 29 C 0.0 -1.4999 0.0 0
M  V30 30 O -0.866 1.0 0.0 0
M  V30 31 C -1.732 -0.4999 0.0 0
M  V30 32 C -0.866 -1.9999 0.0 0
M  V30 33 C -1.732 1.5 0.0 0
M  V30 34 C -1.732 -1.4999 0.0 0
M  V30 35 O -0.866 -2.9999 0.0 0
M  V30 36 C 0.0 -3.4999 0.0 0
M  V30 END ATOM
M  V30 BEGIN BOND
M  V30 1 1 1 2
M  V30 2 1 2 3
M  V30 3 1 2 4
M  V30 4 1 2 5
M  V30 5 2 5 6
M  V30 6 1 5 7
M  V30 7 1 6 8
M  V30 8 2 7 9
M  V30 9 2 8 10
M  V30 10 1 8 11
M  V30 11 1 11 12
M  V30 12 1 12 13
M  V30 13 1 12 14
M  V30 14 2 13 15
M  V30 15 1 13 16
M  V30 16 2 14 17
M  V30 17 1 14 18
M  V30 18 1 15 19
M  V30 19 2 16 20
M  V30 20 1 17 21
M  V30 21 2 19 22
M  V30 22 1 22 23
M  V30 23 2 23 24
M  V30 24 1 23 25
M  V30 25 1 25 26
M  V30 26 1 26 27
M  V30 27 2 27 28
M  V30 28 1 27 29
M  V30 29 1 28 30
M  V30 30 1 28 31
M  V30 31 2 29 32
M  V30 32 1 30 33
M  V30 33 2 31 34
M  V30 34 1 32 35
M  V30 35 1 35 36
M  V30 36 1 9 10
M  V30 37 1 15 17
M  V30 38 1 20 22
M  V30 39 1 32 34
M  V30 END BOND
M  V30 END CTAB
M  END
>  <Molecule ChEMBL ID>
CHEMBL4586093

>  <Smiles>
COc1ccc(OC)c(CNC(=O)c2ccc3c(c2)c(C)c(C)n3Cc2cccc(C(F)(F)F)c2)c1

>  <IC50_nM>
48

>  <Assay Description>
Displacement of fluormone PPAR green tracer ligand from recombinant GST-tagged PPARgamma ligand binding domain (unknown origin) incubated for 4 hrs by competitive fluorescence polarization binding assay

$$$$
CHEMBL121
Actelion Java MolfileCreator 2.0

  0  0  0  0  0  0              0 V3000
M  V30 BEGIN CTAB
M  V30 COUNTS 25 27 0 0 0
M  V30 BEGIN ATOM
M  V30 1 S 7.8987 0.0054 0.0 0
M  V30 2 C 8.8769 -0.2024 0.0 0
M  V30 3 C 7.7942 0.9999 0.0 0 CFG=2
M  V30 4 O 9.2836 -1.1159 0.0 0
M  V30 5 N 9.3769 0.6635 0.0 0
M  V30 6 C 8.7077 1.4067 0.0 0
M  V30 7 C 6.9282 1.4999 0.0 0
M  V30 8 O 8.9156 2.3848 0.0 0
M  V30 9 C 6.0621 0.9999 0.0 0
M  V30 10 C 5.1961 1.4999 0.0 0
M  V30 11 C 6.0621 0.0 0.0 0
M  V30 12 C 4.3301 0.9999 0.0 0
M  V30 13 C 5.1961 -0.5 0.0 0
M  V30 14 C 4.3301 0.0 0.0 0
M  V30 15 O 3.4641 -0.5 0.0 0
M  V30 16 C 2.598 0.0 0.0 0
M  V30 17 C 1.732 -0.5 0.0 0
M  V30 18 N 0.866 0.0 0.0 0
M  V30 19 C 0.866 1.0 0.0 0
M  V30 20 C 0.0 -0.5 0.0 0
M  V30 21 N 1.732 1.4999 0.0 0
M  V30 22 C 0.0 1.4999 0.0 0
M  V30 23 C 1.732 2.5 0.0 0
M  V30 24 C 0.0 2.5 0.0 0
M  V30 25 C 0.866 3.0 0.0 0
M  V30 END ATOM
M  V30 BEGIN BOND
M  V30 1 1 1 2
M  V30 2 1 1 3
M  V30 3 2 2 4
M  V30 4 1 2 5
M  V30 5 1 3 6
M  V30 6 1 3 7 CFG=1
M  V30 7 2 6 8
M  V30 8 1 7 9
M  V30 9 2 9 10
M  V30 10 1 9 11
M  V30 11 1 10 12
M  V30 12 2 11 13
M  V30 13 2 12 14
M  V30 14 1 14 15
M  V30 15 1 15 16
M  V30 16 1 16 17
M  V30 17 1 17 18
M  V30 18 1 18 19
M  V30 19 1 18 20
M  V30 20 2 19 21
M  V30 21 1 19 22
M  V30 22 1 21 23
M  V30 23 2 22 24
M  V30 24 2 23 25
M  V30 25 1 5 6
M  V30 26 1 13 14
M  V30 27 1 24 25
M  V30 END BOND
M  V30 BEGIN COLLECTION
M  V30 MDLV30/STERAC1 ATOMS=(1 3)
M  V30 END COLLECTION
M  V30 END CTAB
M  END
>  <Molecule ChEMBL ID>
CHEMBL121

>  <Smiles>
CN(CCOc1ccc(CC2SC(=O)NC2=O)cc1)c1ccccn1

>  <IC50_nM>
48

>  <Assay Description>
Displacement of tritium labeled ligand from human PPARgamma by SPA assay

$$$$
CHEMBL121
Actelion Java MolfileCreator 2.0

  0  0  0  0  0  0              0 V3000
M  V30 BEGIN CTAB
M  V30 COUNTS 25 27 0 0 0
M  V30 BEGIN ATOM
M  V30 1 S 7.8987 0.0054 0.0 0
M  V30 2 C 8.8769 -0.2024 0.0 0
M  V30 3 C 7.7942 0.9999 0.0 0 CFG=2
M  V30 4 O 9.2836 -1.1159 0.0 0
M  V30 5 N 9.3769 0.6635 0.0 0
M  V30 6 C 8.7077 1.4067 0.0 0
M  V30 7 C 6.9282 1.4999 0.0 0
M  V30 8 O 8.9156 2.3848 0.0 0
M  V30 9 C 6.0621 0.9999 0.0 0
M  V30 10 C 5.1961 1.4999 0.0 0
M  V30 11 C 6.0621 0.0 0.0 0
M  V30 12 C 4.3301 0.9999 0.0 0
M  V30 13 C 5.1961 -0.5 0.0 0
M  V30 14 C 4.3301 0.0 0.0 0
M  V30 15 O 3.4641 -0.5 0.0 0
M  V30 16 C 2.598 0.0 0.0 0
M  V30 17 C 1.732 -0.5 0.0 0
M  V30 18 N 0.866 0.0 0.0 0
M  V30 19 C 0.866 1.0 0.0 0
M  V30 20 C 0.0 -0.5 0.0 0
M  V30 21 N 1.732 1.4999 0.0 0
M  V30 22 C 0.0 1.4999 0.0 0
M  V30 23 C 1.732 2.5 0.0 0
M  V30 24 C 0.0 2.5 0.0 0
M  V30 25 C 0.866 3.0 0.0 0
M  V30 END ATOM
M  V30 BEGIN BOND
M  V30 1 1 1 2
M  V30 2 1 1 3
M  V30 3 2 2 4
M  V30 4 1 2 5
M  V30 5 1 3 6
M  V30 6 1 3 7 CFG=1
M  V30 7 2 6 8
M  V30 8 1 7 9
M  V30 9 2 9 10
M  V30 10 1 9 11
M  V30 11 1 10 12
M  V30 12 2 11 13
M  V30 13 2 12 14
M  V30 14 1 14 15
M  V30 15 1 15 16
M  V30 16 1 16 17
M  V30 17 1 17 18
M  V30 18 1 18 19
M  V30 19 1 18 20
M  V30 20 2 19 21
M  V30 21 1 19 22
M  V30 22 1 21 23
M  V30 23 2 22 24
M  V30 24 2 23 25
M  V30 25 1 5 6
M  V30 26 1 13 14
M  V30 27 1 24 25
M  V30 END BOND
M  V30 BEGIN COLLECTION
M  V30 MDLV30/STERAC1 ATOMS=(1 3)
M  V30 END COLLECTION
M  V30 END CTAB
M  END
>  <Molecule ChEMBL ID>
CHEMBL121

>  <Smiles>
CN(CCOc1ccc(CC2SC(=O)NC2=O)cc1)c1ccccn1

>  <IC50_nM>
48

>  <Assay Description>
Binding affinity at human peroxidase proliferator activated receptor gamma (hPPARgamma)

$$$$
CHEMBL2331778
Actelion Java MolfileCreator 2.0

  0  0  0  0  0  0              0 V3000
M  V30 BEGIN CTAB
M  V30 COUNTS 32 34 0 0 0
M  V30 BEGIN ATOM
M  V30 1 Cl 11.6913 1.5 0.0 0
M  V30 2 C 10.3923 2.25 0.0 0
M  V30 3 C 10.3923 3.75 0.0 0
M  V30 4 C 9.0932 1.5 0.0 0
M  V30 5 N 9.0932 4.5 0.0 0
M  V30 6 C 7.7942 2.25 0.0 0
M  V30 7 C 7.7942 3.75 0.0 0
M  V30 8 O 6.4951 1.5 0.0 0
M  V30 9 C 6.4951 0.0 0.0 0
M  V30 10 C 5.1961 -0.75 0.0 0
M  V30 11 C 7.7942 -0.75 0.0 0
M  V30 12 C 3.8971 0.0 0.0 0
M  V30 13 C 5.1961 -2.25 0.0 0
M  V30 14 C 7.7942 -2.25 0.0 0
M  V30 15 O 3.8971 1.5 0.0 0
M  V30 16 N 2.598 -0.75 0.0 0
M  V30 17 C 6.4951 -3.0 0.0 0
M  V30 18 C 1.299 0.0 0.0 0
M  V30 19 N 6.4951 -4.5 0.0 0
M  V30 20 C 0.0 -0.75 0.0 0
M  V30 21 S 5.1961 -5.25 0.0 0
M  V30 22 O 4.4461 -3.9509 0.0 0
M  V30 23 O 3.6961 -5.25 0.0 0
M  V30 24 C 5.1961 -6.75 0.0 0
M  V30 25 C 3.8971 -7.5 0.0 0
M  V30 26 C 6.4951 -7.5 0.0 0
M  V30 27 C 3.8971 -9.0 0.0 0
M  V30 28 C 6.4951 -9.0 0.0 0
M  V30 29 C 5.1961 -9.75 0.0 0
M  V30 30 N 5.1961 -11.25 0.0 0 CHG=1
M  V30 31 O 3.8971 -12.0 0.0 0
M  V30 32 O 6.4951 -12.0 0.0 0 CHG=-1
M  V30 END ATOM
M  V30 BEGIN BOND
M  V30 1 1 1 2
M  V30 2 2 2 3
M  V30 3 1 2 4
M  V30 4 1 3 5
M  V30 5 2 4 6
M  V30 6 2 5 7
M  V30 7 1 6 8
M  V30 8 1 8 9
M  V30 9 2 9 10
M  V30 10 1 9 11
M  V30 11 1 10 12
M  V30 12 1 10 13
M  V30 13 2 11 14
M  V30 14 2 12 15
M  V30 15 1 12 16
M  V30 16 2 13 17
M  V30 17 1 16 18
M  V30 18 1 17 19
M  V30 19 1 18 20
M  V30 20 1 19 21
M  V30 21 2 21 22
M  V30 22 2 21 23
M  V30 23 1 21 24
M  V30 24 2 24 25
M  V30 25 1 24 26
M  V30 26 1 25 27
M  V30 27 2 26 28
M  V30 28 2 27 29
M  V30 29 1 29 30
M  V30 30 2 30 31
M  V30 31 1 30 32
M  V30 32 1 6 7
M  V30 33 1 14 17
M  V30 34 1 28 29
M  V30 END BOND
M  V30 END CTAB
M  END
>  <Molecule ChEMBL ID>
CHEMBL2331778

>  <Smiles>
CCNC(=O)c1cc(NS(=O)(=O)c2ccc([N+](=O)[O-])cc2)ccc1Oc1cncc(Cl)c1

>  <IC50_nM>
49

>  <Assay Description>
Displacement of [3H]-rosiglitazone from GST-tagged PPARgammaLBD (unknown origin) after 1 hr by scintillation proximity assay

$$$$
CHEMBL196428
Actelion Java MolfileCreator 2.0

  0  0  0  0  0  0              0 V3000
M  V30 BEGIN CTAB
M  V30 COUNTS 34 37 0 0 0
M  V30 BEGIN ATOM
M  V30 1 F 5.3301 -3.0 0.0 0
M  V30 2 C 4.3301 -3.0 0.0 0
M  V30 3 F 4.3301 -4.0 0.0 0
M  V30 4 F 3.3301 -2.9999 0.0 0
M  V30 5 O 4.3301 -1.9999 0.0 0
M  V30 6 C 3.4641 -1.4999 0.0 0
M  V30 7 C 3.4641 -0.5 0.0 0
M  V30 8 C 2.598 -1.9999 0.0 0
M  V30 9 C 2.598 0.0 0.0 0
M  V30 10 C 1.732 -1.5 0.0 0
M  V30 11 C 1.732 -0.5 0.0 0
M  V30 12 O 0.866 0.0 0.0 0
M  V30 13 C 0.0 -0.5 0.0 0
M  V30 14 C -0.9135 -0.0932 0.0 0
M  V30 15 C -0.1045 -1.4945 0.0 0
M  V30 16 N -1.5826 -0.8364 0.0 0
M  V30 17 C -1.1214 0.8848 0.0 0
M  V30 18 C -1.0826 -1.7024 0.0 0
M  V30 19 C 0.5646 -2.2376 0.0 0
M  V30 20 C -2.5771 -0.7318 0.0 0
M  V30 21 O -0.3783 1.554 0.0 0
M  V30 22 O -2.0725 1.1939 0.0 0
M  V30 23 C -1.3916 -2.6534 0.0 0
M  V30 24 C 0.2555 -3.1887 0.0 0
M  V30 25 C -2.9839 0.1816 0.0 0
M  V30 26 C -3.1649 -1.5408 0.0 0
M  V30 27 C -0.7225 -3.3966 0.0 0
M  V30 28 C -3.9784 0.2861 0.0 0
M  V30 29 C -4.1595 -1.4363 0.0 0
M  V30 30 C -4.5662 -0.5228 0.0 0
M  V30 31 C -5.5607 -0.4182 0.0 0
M  V30 32 C -5.6652 -1.4128 0.0 0
M  V30 33 C -6.5552 -0.3137 0.0 0
M  V30 34 C -5.4562 0.5762 0.0 0
M  V30 END ATOM
M  V30 BEGIN BOND
M  V30 1 1 1 2
M  V30 2 1 2 3
M  V30 3 1 2 4
M  V30 4 1 2 5
M  V30 5 1 5 6
M  V30 6 2 6 7
M  V30 7 1 6 8
M  V30 8 1 7 9
M  V30 9 2 8 10
M  V30 10 2 9 11
M  V30 11 1 11 12
M  V30 12 1 12 13
M  V30 13 2 13 14
M  V30 14 1 13 15
M  V30 15 1 14 16
M  V30 16 1 14 17
M  V30 17 2 15 18
M  V30 18 1 15 19
M  V30 19 1 16 20
M  V30 20 2 17 21
M  V30 21 1 17 22
M  V30 22 1 18 23
M  V30 23 2 19 24
M  V30 24 2 20 25
M  V30 25 1 20 26
M  V30 26 2 23 27
M  V30 27 1 25 28
M  V30 28 2 26 29
M  V30 29 2 28 30
M  V30 30 1 30 31
M  V30 31 1 31 32
M  V30 32 1 31 33
M  V30 33 1 31 34
M  V30 34 1 10 11
M  V30 35 1 16 18
M  V30 36 1 24 27
M  V30 37 1 29 30
M  V30 END BOND
M  V30 END CTAB
M  END
>  <Molecule ChEMBL ID>
CHEMBL196428

>  <Smiles>
CC(C)(C)c1ccc(-n2c(C(=O)O)c(Oc3ccc(OC(F)(F)F)cc3)c3ccccc32)cc1

>  <IC50_nM>
49

>  <Assay Description>
Inhibitory concentration against human peroxisome proliferator activated receptor gamma in SPA assay

$$$$
CHEMBL372107
Actelion Java MolfileCreator 2.0

  0  0  0  0  0  0              0 V3000
M  V30 BEGIN CTAB
M  V30 COUNTS 32 35 0 0 0
M  V30 BEGIN ATOM
M  V30 1 O 4.7084 0.9459 0.0 0
M  V30 2 C 5.4515 1.6151 0.0 0
M  V30 3 O 6.4026 1.306 0.0 0
M  V30 4 C 5.2436 2.5932 0.0 0
M  V30 5 N 5.9128 3.3364 0.0 0
M  V30 6 C 4.3301 3.0 0.0 0
M  V30 7 C 6.9073 3.2318 0.0 0
M  V30 8 C 5.4128 4.2024 0.0 0
M  V30 9 O 3.4641 2.5 0.0 0
M  V30 10 C 4.4346 3.9945 0.0 0
M  V30 11 C 7.314 2.3183 0.0 0
M  V30 12 C 7.4951 4.0408 0.0 0
M  V30 13 C 5.7218 5.1534 0.0 0
M  V30 14 C 2.598 3.0 0.0 0
M  V30 15 C 3.7655 4.7376 0.0 0
M  V30 16 C 8.3085 2.2138 0.0 0
M  V30 17 C 8.4896 3.9363 0.0 0
M  V30 18 C 5.0526 5.8966 0.0 0
M  V30 19 C 2.598 3.9999 0.0 0
M  V30 20 C 1.732 2.4999 0.0 0
M  V30 21 C 4.0745 5.6887 0.0 0
M  V30 22 C 8.8963 3.0228 0.0 0
M  V30 23 C 1.732 4.4999 0.0 0
M  V30 24 C 0.866 2.9999 0.0 0
M  V30 25 C 9.8908 2.9182 0.0 0
M  V30 26 O 1.732 5.4999 0.0 0
M  V30 27 C 0.866 3.9999 0.0 0
M  V30 28 C 9.9954 3.9128 0.0 0
M  V30 29 C 10.8854 2.8137 0.0 0
M  V30 30 C 9.7863 1.9237 0.0 0
M  V30 31 C 2.598 6.0 0.0 0
M  V30 32 C 2.598 7.0 0.0 0
M  V30 END ATOM
M  V30 BEGIN BOND
M  V30 1 2 1 2
M  V30 2 1 2 3
M  V30 3 1 2 4
M  V30 4 1 4 5
M  V30 5 2 4 6
M  V30 6 1 5 7
M  V30 7 1 5 8
M  V30 8 1 6 9
M  V30 9 1 6 10
M  V30 10 2 7 11
M  V30 11 1 7 12
M  V30 12 1 8 13
M  V30 13 1 9 14
M  V30 14 1 10 15
M  V30 15 1 11 16
M  V30 16 2 12 17
M  V30 17 2 13 18
M  V30 18 2 14 19
M  V30 19 1 14 20
M  V30 20 2 15 21
M  V30 21 2 16 22
M  V30 22 1 19 23
M  V30 23 2 20 24
M  V30 24 1 22 25
M  V30 25 1 23 26
M  V30 26 2 23 27
M  V30 27 1 25 28
M  V30 28 1 25 29
M  V30 29 1 25 30
M  V30 30 1 26 31
M  V30 31 1 31 32
M  V30 32 2 8 10
M  V30 33 1 17 22
M  V30 34 1 18 21
M  V30 35 1 24 27
M  V30 END BOND
M  V30 END CTAB
M  END
>  <Molecule ChEMBL ID>
CHEMBL372107

>  <Smiles>
CCOc1cccc(Oc2c(C(=O)O)n(-c3ccc(C(C)(C)C)cc3)c3ccccc23)c1

>  <IC50_nM>
49

>  <Assay Description>
Inhibitory concentration against human peroxisome proliferator activated receptor gamma in SPA assay

$$$$
CHEMBL3678092
Actelion Java MolfileCreator 2.0

  0  0  0  0  0  0              0 V3000
M  V30 BEGIN CTAB
M  V30 COUNTS 33 37 0 0 0
M  V30 BEGIN ATOM
M  V30 1 F 8.8737 -1.5453 0.0 0
M  V30 2 C 8.5647 -2.4964 0.0 0
M  V30 3 C 7.5865 -2.7043 0.0 0
M  V30 4 C 9.2338 -3.2395 0.0 0
M  V30 5 C 7.2775 -3.6554 0.0 0
M  V30 6 C 6.9174 -1.9612 0.0 0
M  V30 7 C 8.9248 -4.1906 0.0 0
M  V30 8 C 7.9466 -4.3985 0.0 0
M  V30 9 N 5.9392 -2.1691 0.0 0
M  V30 10 F 9.5939 -4.9337 0.0 0
M  V30 11 C 5.1961 -1.4999 0.0 0
M  V30 12 C 5.5325 -3.0826 0.0 0
M  V30 13 C 4.3301 -1.9999 0.0 0
M  V30 14 C 5.1961 -0.4999 0.0 0
M  V30 15 C 4.538 -2.9781 0.0 0
M  V30 16 C 3.4641 -1.5 0.0 0
M  V30 17 C 4.3301 0.0 0.0 0
M  V30 18 C 3.4641 -0.5 0.0 0
M  V30 19 C 2.598 0.0 0.0 0
M  V30 20 O 2.598 1.0 0.0 0
M  V30 21 N 1.732 -0.5 0.0 0
M  V30 22 C 0.866 0.0 0.0 0 CFG=2
M  V30 23 C 0.866 1.0 0.0 0
M  V30 24 C 0.0 -0.5 0.0 0
M  V30 25 C 0.0 1.4999 0.0 0
M  V30 26 C 1.732 1.5 0.0 0
M  V30 27 C 0.0 2.4999 0.0 0
M  V30 28 C -0.866 0.9999 0.0 0
M  V30 29 C 1.732 2.5 0.0 0
M  V30 30 C 0.866 3.0 0.0 0
M  V30 31 C -0.866 2.9999 0.0 0
M  V30 32 C -1.732 1.4999 0.0 0
M  V30 33 C -1.732 2.4999 0.0 0
M  V30 END ATOM
M  V30 BEGIN BOND
M  V30 1 1 1 2
M  V30 2 2 2 3
M  V30 3 1 2 4
M  V30 4 1 3 5
M  V30 5 1 3 6
M  V30 6 2 4 7
M  V30 7 2 5 8
M  V30 8 1 6 9
M  V30 9 1 7 10
M  V30 10 1 9 11
M  V30 11 1 9 12
M  V30 12 2 11 13
M  V30 13 1 11 14
M  V30 14 2 12 15
M  V30 15 1 13 16
M  V30 16 2 14 17
M  V30 17 2 16 18
M  V30 18 1 18 19
M  V30 19 2 19 20
M  V30 20 1 19 21
M  V30 21 1 21 22
M  V30 22 1 22 23
M  V30 23 1 22 24 CFG=1
M  V30 24 1 23 25
M  V30 25 2 23 26
M  V30 26 1 25 27
M  V30 27 2 25 28
M  V30 28 1 26 29
M  V30 29 1 27 30
M  V30 30 2 27 31
M  V30 31 1 28 32
M  V30 32 1 31 33
M  V30 33 1 7 8
M  V30 34 1 13 15
M  V30 35 1 17 18
M  V30 36 2 29 30
M  V30 37 2 32 33
M  V30 END BOND
M  V30 BEGIN COLLECTION
M  V30 MDLV30/STERAC1 ATOMS=(1 22)
M  V30 END COLLECTION
M  V30 END CTAB
M  END
>  <Molecule ChEMBL ID>
CHEMBL3678092

>  <Smiles>
CC(NC(=O)c1ccc2c(ccn2Cc2ccc(F)cc2F)c1)c1cccc2ccccc12

>  <IC50_nM>
49

>  <Assay Description>
Lanthascreen Competitive Binding Assay: The assay was performed according to manufacturer protocol. A mixture of 5 nM GST-PPARG-LBD, 5 nM Tb-GST-antibody, 5 nM Fluormone Pan- PPAR Green, and serial dilutions of the experimental compound, beginning at 10 ׬� downwards, was added to wells of black 384-well low- volume plates (Greiner) to a total volume of 18 xL. All dilutions were made in TR-FRET assay buffer C. DMSO at 2% final concentration was used as a no-ligand control. Experiment was performed in triplicate, and incubated for 2 hours in the dark prior to assay read in Perkin Elmer ViewLux ultra HTS microplate reader. FRET signal was measured by excitation at 340 nm and emission at 520 nm for fluorescein and 490 nm for terbium.

$$$$
CHEMBL359476
Actelion Java MolfileCreator 2.0

  0  0  0  0  0  0              0 V3000
M  V30 BEGIN CTAB
M  V30 COUNTS 34 37 0 0 0
M  V30 BEGIN ATOM
M  V30 1 Cl 6.0664 -5.852 0.0 0
M  V30 2 C 6.6542 -5.043 0.0 0
M  V30 3 C 7.6487 -5.1475 0.0 0
M  V30 4 C 6.2475 -4.1294 0.0 0
M  V30 5 C 8.2365 -4.3385 0.0 0
M  V30 6 C 6.8353 -3.3204 0.0 0
M  V30 7 C 7.8298 -3.4249 0.0 0
M  V30 8 C 8.4176 -2.6159 0.0 0
M  V30 9 O 9.4121 -2.7205 0.0 0
M  V30 10 N 8.0108 -1.7024 0.0 0
M  V30 11 C 8.5108 -0.8364 0.0 0
M  V30 12 C 7.0327 -1.4945 0.0 0
M  V30 13 C 7.8417 -0.0932 0.0 0
M  V30 14 C 9.489 -0.6284 0.0 0
M  V30 15 C 6.9282 -0.5 0.0 0
M  V30 16 C 6.2895 -2.1636 0.0 0
M  V30 17 C 8.1507 0.8577 0.0 0
M  V30 18 C 9.798 0.3225 0.0 0
M  V30 19 C 6.0621 0.0 0.0 0
M  V30 20 C 9.1289 1.0657 0.0 0
M  V30 21 C 5.1961 -0.5 0.0 0
M  V30 22 O 9.4379 2.0167 0.0 0
M  V30 23 C 4.3301 0.0 0.0 0
M  V30 24 C 5.1961 -1.4999 0.0 0
M  V30 25 C 8.7687 2.7599 0.0 0
M  V30 26 C 3.4641 -0.5 0.0 0
M  V30 27 C 4.3301 -1.9999 0.0 0
M  V30 28 O 2.598 0.0 0.0 0
M  V30 29 C 3.4641 -1.4999 0.0 0
M  V30 30 C 1.732 -0.5 0.0 0 CFG=2
M  V30 31 C 0.866 0.0 0.0 0
M  V30 32 C 1.732 -1.5 0.0 0
M  V30 33 O 0.866 1.0 0.0 0
M  V30 34 O 0.0 -0.5 0.0 0
M  V30 END ATOM
M  V30 BEGIN BOND
M  V30 1 1 1 2
M  V30 2 2 2 3
M  V30 3 1 2 4
M  V30 4 1 3 5
M  V30 5 2 4 6
M  V30 6 2 5 7
M  V30 7 1 7 8
M  V30 8 2 8 9
M  V30 9 1 8 10
M  V30 10 1 10 11
M  V30 11 1 10 12
M  V30 12 2 11 13
M  V30 13 1 11 14
M  V30 14 2 12 15
M  V30 15 1 12 16
M  V30 16 1 13 17
M  V30 17 2 14 18
M  V30 18 1 15 19
M  V30 19 2 17 20
M  V30 20 1 19 21
M  V30 21 1 20 22
M  V30 22 2 21 23
M  V30 23 1 21 24
M  V30 24 1 22 25
M  V30 25 1 23 26
M  V30 26 2 24 27
M  V30 27 1 26 28
M  V30 28 2 26 29
M  V30 29 1 28 30
M  V30 30 1 30 31
M  V30 31 1 30 32 CFG=1
M  V30 32 2 31 33
M  V30 33 1 31 34
M  V30 34 1 6 7
M  V30 35 1 13 15
M  V30 36 1 18 20
M  V30 37 1 27 29
M  V30 END BOND
M  V30 BEGIN COLLECTION
M  V30 MDLV30/STERAC1 ATOMS=(1 30)
M  V30 END COLLECTION
M  V30 END CTAB
M  END
>  <Molecule ChEMBL ID>
CHEMBL359476

>  <Smiles>
COc1ccc2c(c1)c(Cc1cccc(OC(C)C(=O)O)c1)c(C)n2C(=O)c1ccc(Cl)cc1

>  <IC50_nM>
49

>  <Assay Description>
In vitro inhibition of human Peroxisome proliferator activated receptor gamma

$$$$
CHEMBL1947145
Actelion Java MolfileCreator 2.0

  0  0  0  0  0  0              0 V3000
M  V30 BEGIN CTAB
M  V30 COUNTS 35 40 0 0 0
M  V30 BEGIN ATOM
M  V30 1 Cl 11.1081 -4.8575 0.0 0
M  V30 2 C 9.8946 -3.9758 0.0 0
M  V30 3 C 10.0514 -2.4841 0.0 0
M  V30 4 C 8.5243 -4.5859 0.0 0
M  V30 5 C 8.8378 -1.6024 0.0 0
M  V30 6 C 7.3107 -3.7043 0.0 0
M  V30 7 O 8.681 -0.1106 0.0 0
M  V30 8 C 7.4675 -2.2125 0.0 0
M  V30 9 N 7.2138 0.2012 0.0 0
M  V30 10 C 6.4638 -1.0978 0.0 0
M  V30 11 N 4.972 -1.2546 0.0 0
M  V30 12 C 3.9683 -0.1398 0.0 0
M  V30 13 C 4.222 -2.5536 0.0 0
M  V30 14 O 4.2802 1.3273 0.0 0
M  V30 15 N 2.598 -0.75 0.0 0
M  V30 16 C 2.7548 -2.2417 0.0 0
M  V30 17 C 4.6856 -3.9802 0.0 0
M  V30 18 C 1.299 0.0 0.0 0
M  V30 19 C 1.7511 -3.3565 0.0 0
M  V30 20 C 3.6819 -5.0949 0.0 0
M  V30 21 C 0.0 -0.75 0.0 0
M  V30 22 C 2.2146 -4.783 0.0 0
M  V30 23 C -1.299 0.0 0.0 0
M  V30 24 C 0.0 -2.25 0.0 0
M  V30 25 C -2.598 -0.7499 0.0 0
M  V30 26 C -1.299 -2.9999 0.0 0
M  V30 27 C -2.598 -2.2499 0.0 0
M  V30 28 C -3.8971 0.0 0.0 0 CFG=1
M  V30 29 O -4.0539 1.4917 0.0 0
M  V30 30 C -5.2674 -0.6101 0.0 0
M  V30 31 C -3.9756 -1.4979 0.0 0
M  V30 32 C -5.5211 1.8036 0.0 0
M  V30 33 O -5.5793 -2.0773 0.0 0
M  V30 34 N -6.2711 0.5046 0.0 0
M  V30 35 O -6.1312 3.1739 0.0 0
M  V30 END ATOM
M  V30 BEGIN BOND
M  V30 1 1 1 2
M  V30 2 2 2 3
M  V30 3 1 2 4
M  V30 4 1 3 5
M  V30 5 2 4 6
M  V30 6 1 5 7
M  V30 7 2 5 8
M  V30 8 1 7 9
M  V30 9 1 8 10
M  V30 10 1 10 11
M  V30 11 1 11 12
M  V30 12 1 11 13
M  V30 13 2 12 14
M  V30 14 1 12 15
M  V30 15 2 13 16
M  V30 16 1 13 17
M  V30 17 1 15 18
M  V30 18 1 16 19
M  V30 19 2 17 20
M  V30 20 1 18 21
M  V30 21 2 19 22
M  V30 22 2 21 23
M  V30 23 1 21 24
M  V30 24 1 23 25
M  V30 25 2 24 26
M  V30 26 2 25 27
M  V30 27 1 25 28
M  V30 28 1 28 29
M  V30 29 1 28 30
M  V30 30 1 28 31 CFG=1
M  V30 31 1 29 32
M  V30 32 2 30 33
M  V30 33 1 30 34
M  V30 34 2 32 35
M  V30 35 1 6 8
M  V30 36 2 9 10
M  V30 37 1 15 16
M  V30 38 1 20 22
M  V30 39 1 26 27
M  V30 40 1 32 34
M  V30 END BOND
M  V30 BEGIN COLLECTION
M  V30 MDLV30/STEABS ATOMS=(1 28)
M  V30 END COLLECTION
M  V30 END CTAB
M  END
>  <Molecule ChEMBL ID>
CHEMBL1947145

>  <Smiles>
C[C@]1(c2cccc(Cn3c(=O)n(-c4noc5cc(Cl)ccc45)c4ccccc43)c2)OC(=O)NC1=O

>  <IC50_nM>
49.1

>  <Assay Description>
Binding affinity to human PPARgamma by scintillation proximity assay

$$$$
CHEMBL3398454
Actelion Java MolfileCreator 2.0

  0  0  0  0  0  0              0 V3000
M  V30 BEGIN CTAB
M  V30 COUNTS 39 43 0 0 0
M  V30 BEGIN ATOM
M  V30 1 F 5.4743 -7.8867 0.0 0
M  V30 2 C 4.4743 -7.8867 0.0 0
M  V30 3 F 4.4743 -8.8867 0.0 0
M  V30 4 F 3.4743 -7.8867 0.0 0
M  V30 5 C 4.4743 -6.8867 0.0 0
M  V30 6 N 5.2834 -6.2989 0.0 0
M  V30 7 C 3.6653 -6.2989 0.0 0
M  V30 8 C 4.9743 -5.3478 0.0 0
M  V30 9 O 3.9743 -5.3478 0.0 0
M  V30 10 N 5.5621 -4.5388 0.0 0
M  V30 11 C 6.5621 -4.5388 0.0 0
M  V30 12 C 5.2531 -3.5877 0.0 0
M  V30 13 C 6.8711 -3.5877 0.0 0 CFG=1
M  V30 14 C 6.0621 -3.0 0.0 0 CFG=2
M  V30 15 C 7.8222 -3.2787 0.0 0
M  V30 16 C 6.0621 -2.0 0.0 0
M  V30 17 O 8.5653 -3.9478 0.0 0
M  V30 18 O 8.0301 -2.3006 0.0 0
M  V30 19 C 5.1961 -1.4999 0.0 0
M  V30 20 C 5.1961 -0.5 0.0 0
M  V30 21 C 4.3301 -1.9999 0.0 0
M  V30 22 C 4.3301 0.0 0.0 0
M  V30 23 C 3.4641 -1.5 0.0 0
M  V30 24 C 3.4641 -0.5 0.0 0
M  V30 25 O 2.598 0.0 0.0 0
M  V30 26 C 1.732 -0.5 0.0 0
M  V30 27 C 0.866 0.0 0.0 0
M  V30 28 C 0.0 -0.5 0.0 0
M  V30 29 N -0.9135 -0.0932 0.0 0
M  V30 30 C -0.1045 -1.4945 0.0 0
M  V30 31 C -1.5826 -0.8364 0.0 0
M  V30 32 O -1.0826 -1.7024 0.0 0
M  V30 33 C 0.6386 -2.1636 0.0 0
M  V30 34 C -2.5771 -0.7318 0.0 0
M  V30 35 C -2.9839 0.1816 0.0 0
M  V30 36 C -3.1649 -1.5408 0.0 0
M  V30 37 C -3.9784 0.2861 0.0 0
M  V30 38 C -4.1595 -1.4363 0.0 0
M  V30 39 C -4.5662 -0.5228 0.0 0
M  V30 END ATOM
M  V30 BEGIN BOND
M  V30 1 1 1 2
M  V30 2 1 2 3
M  V30 3 1 2 4
M  V30 4 1 2 5
M  V30 5 1 5 6
M  V30 6 2 5 7
M  V30 7 2 6 8
M  V30 8 1 7 9
M  V30 9 1 8 10
M  V30 10 1 10 11
M  V30 11 1 10 12
M  V30 12 1 11 13
M  V30 13 1 12 14
M  V30 14 1 13 15 CFG=1
M  V30 15 1 14 16 CFG=1
M  V30 16 2 15 17
M  V30 17 1 15 18
M  V30 18 1 16 19
M  V30 19 2 19 20
M  V30 20 1 19 21
M  V30 21 1 20 22
M  V30 22 2 21 23
M  V30 23 2 22 24
M  V30 24 1 24 25
M  V30 25 1 25 26
M  V30 26 1 26 27
M  V30 27 1 27 28
M  V30 28 1 28 29
M  V30 29 2 28 30
M  V30 30 2 29 31
M  V30 31 1 30 32
M  V30 32 1 30 33
M  V30 33 1 31 34
M  V30 34 2 34 35
M  V30 35 1 34 36
M  V30 36 1 35 37
M  V30 37 2 36 38
M  V30 38 2 37 39
M  V30 39 1 8 9
M  V30 40 1 13 14
M  V30 41 1 23 24
M  V30 42 1 31 32
M  V30 43 1 38 39
M  V30 END BOND
M  V30 BEGIN COLLECTION
M  V30 MDLV30/STEABS ATOMS=(2 13 14)
M  V30 END COLLECTION
M  V30 END CTAB
M  END
>  <Molecule ChEMBL ID>
CHEMBL3398454

>  <Smiles>
Cc1oc(-c2ccccc2)nc1CCOc1ccc(C[C@@H]2CN(c3nc(C(F)(F)F)co3)C[C@@H]2C(=O)O)cc1

>  <IC50_nM>
50

>  <Assay Description>
Binding affinity to PPARgamma (unknown origin) using fluorescein-tagged dual PPARalpha/gamma activator by homogeneous fluorescence polarization binding assay

$$$$
CHEMBL223128
Actelion Java MolfileCreator 2.0

  0  0  0  0  0  0              0 V3000
M  V30 BEGIN CTAB
M  V30 COUNTS 40 43 0 0 0
M  V30 BEGIN ATOM
M  V30 1 O 2.598 1.0 0.0 0
M  V30 2 C 2.598 0.0 0.0 0
M  V30 3 O 3.4641 -0.5 0.0 0
M  V30 4 N 1.732 -0.5 0.0 0
M  V30 5 C 4.3301 0.0 0.0 0
M  V30 6 C 0.866 0.0 0.0 0
M  V30 7 C 5.1961 -0.5 0.0 0
M  V30 8 C 4.3301 1.0 0.0 0
M  V30 9 C 0.0 -0.5 0.0 0
M  V30 10 C -0.866 0.0 0.0 0
M  V30 11 C 0.0 -1.4999 0.0 0
M  V30 12 C -1.732 -0.4999 0.0 0
M  V30 13 C -0.866 1.0 0.0 0
M  V30 14 C -0.866 -1.9999 0.0 0
M  V30 15 C -1.732 -1.4999 0.0 0
M  V30 16 C -1.732 1.5 0.0 0
M  V30 17 O -0.866 -2.9999 0.0 0
M  V30 18 C -1.732 2.5 0.0 0
M  V30 19 C 0.0 -3.4999 0.0 0
M  V30 20 O -0.866 3.0 0.0 0
M  V30 21 O -2.598 3.0 0.0 0
M  V30 22 C 0.0 -4.4999 0.0 0
M  V30 23 C 0.866 -5.0 0.0 0
M  V30 24 N 0.9705 -5.9945 0.0 0
M  V30 25 C 1.7795 -4.5932 0.0 0
M  V30 26 C 1.9487 -6.2024 0.0 0
M  V30 27 O 2.4487 -5.3364 0.0 0
M  V30 28 C 1.9874 -3.6151 0.0 0
M  V30 29 C 2.3554 -7.1159 0.0 0
M  V30 30 C 1.7676 -7.9249 0.0 0
M  V30 31 C 3.3499 -7.2205 0.0 0
M  V30 32 C 2.1743 -8.8385 0.0 0
M  V30 33 C 3.7566 -8.134 0.0 0
M  V30 34 C 3.1689 -8.943 0.0 0
M  V30 35 C 3.5756 -9.8566 0.0 0
M  V30 36 N 2.9878 -10.6656 0.0 0
M  V30 37 N 4.5701 -9.9611 0.0 0
M  V30 38 C 3.3945 -11.5791 0.0 0
M  V30 39 C 4.9769 -10.8746 0.0 0
M  V30 40 C 4.3891 -11.6837 0.0 0
M  V30 END ATOM
M  V30 BEGIN BOND
M  V30 1 2 1 2
M  V30 2 1 2 3
M  V30 3 1 2 4
M  V30 4 1 3 5
M  V30 5 1 4 6
M  V30 6 1 5 7
M  V30 7 1 5 8
M  V30 8 1 6 9
M  V30 9 2 9 10
M  V30 10 1 9 11
M  V30 11 1 10 12
M  V30 12 1 10 13
M  V30 13 2 11 14
M  V30 14 2 12 15
M  V30 15 1 13 16
M  V30 16 1 14 17
M  V30 17 1 16 18
M  V30 18 1 17 19
M  V30 19 2 18 20
M  V30 20 1 18 21
M  V30 21 1 19 22
M  V30 22 1 22 23
M  V30 23 1 23 24
M  V30 24 2 23 25
M  V30 25 2 24 26
M  V30 26 1 25 27
M  V30 27 1 25 28
M  V30 28 1 26 29
M  V30 29 2 29 30
M  V30 30 1 29 31
M  V30 31 1 30 32
M  V30 32 2 31 33
M  V30 33 2 32 34
M  V30 34 1 34 35
M  V30 35 2 35 36
M  V30 36 1 35 37
M  V30 37 1 36 38
M  V30 38 2 37 39
M  V30 39 2 38 40
M  V30 40 1 14 15
M  V30 41 1 26 27
M  V30 42 1 33 34
M  V30 43 1 39 40
M  V30 END BOND
M  V30 END CTAB
M  END
>  <Molecule ChEMBL ID>
CHEMBL223128

>  <Smiles>
Cc1oc(-c2ccc(-c3ncccn3)cc2)nc1CCOc1ccc(CCC(=O)O)c(CNC(=O)OC(C)C)c1

>  <IC50_nM>
50

>  <Assay Description>
Displacement of [3H]2-methyl-2-(4-{3-propyl-(5-pyridin-2yl-thiophene-2-sulfonyl)-amino]-pro-pyl}-phenoxy)-propionic acid from human PPARgamma

$$$$
CHEMBL333304
Actelion Java MolfileCreator 2.0

  0  0  0  0  0  0              0 V3000
M  V30 BEGIN CTAB
M  V30 COUNTS 25 27 0 0 0
M  V30 BEGIN ATOM
M  V30 1 S 7.8987 0.0054 0.0 0
M  V30 2 C 8.8769 -0.2024 0.0 0
M  V30 3 C 7.7942 0.9999 0.0 0 CFG=1
M  V30 4 O 9.2836 -1.1159 0.0 0
M  V30 5 N 9.3769 0.6635 0.0 0
M  V30 6 C 8.7077 1.4067 0.0 0
M  V30 7 C 6.9282 1.4999 0.0 0
M  V30 8 O 8.9156 2.3848 0.0 0
M  V30 9 C 6.0621 0.9999 0.0 0
M  V30 10 C 5.1961 1.4999 0.0 0
M  V30 11 C 6.0621 0.0 0.0 0
M  V30 12 C 4.3301 0.9999 0.0 0
M  V30 13 C 5.1961 -0.5 0.0 0
M  V30 14 C 4.3301 0.0 0.0 0
M  V30 15 O 3.4641 -0.5 0.0 0
M  V30 16 C 2.598 0.0 0.0 0
M  V30 17 C 1.732 -0.5 0.0 0
M  V30 18 N 0.866 0.0 0.0 0
M  V30 19 C 0.866 1.0 0.0 0
M  V30 20 C 0.0 -0.5 0.0 0
M  V30 21 N 1.732 1.4999 0.0 0
M  V30 22 C 0.0 1.4999 0.0 0
M  V30 23 C 1.732 2.5 0.0 0
M  V30 24 C 0.0 2.5 0.0 0
M  V30 25 C 0.866 3.0 0.0 0
M  V30 END ATOM
M  V30 BEGIN BOND
M  V30 1 1 1 2
M  V30 2 1 1 3
M  V30 3 2 2 4
M  V30 4 1 2 5
M  V30 5 1 3 6
M  V30 6 1 3 7 CFG=3
M  V30 7 2 6 8
M  V30 8 1 7 9
M  V30 9 2 9 10
M  V30 10 1 9 11
M  V30 11 1 10 12
M  V30 12 2 11 13
M  V30 13 2 12 14
M  V30 14 1 14 15
M  V30 15 1 15 16
M  V30 16 1 16 17
M  V30 17 1 17 18
M  V30 18 1 18 19
M  V30 19 1 18 20
M  V30 20 2 19 21
M  V30 21 1 19 22
M  V30 22 1 21 23
M  V30 23 2 22 24
M  V30 24 2 23 25
M  V30 25 1 5 6
M  V30 26 1 13 14
M  V30 27 1 24 25
M  V30 END BOND
M  V30 BEGIN COLLECTION
M  V30 MDLV30/STEABS ATOMS=(1 3)
M  V30 END COLLECTION
M  V30 END CTAB
M  END
>  <Molecule ChEMBL ID>
CHEMBL333304

>  <Smiles>
CN(CCOc1ccc(C[C@H]2SC(=O)NC2=O)cc1)c1ccccn1

>  <IC50_nM>
50

>  <Assay Description>
Final binding affinity against PPAR-gamma receptor

$$$$
CHEMBL320553
Actelion Java MolfileCreator 2.0

  0  0  0  0  0  0              0 V3000
M  V30 BEGIN CTAB
M  V30 COUNTS 29 32 0 0 0
M  V30 BEGIN ATOM
M  V30 1 O 4.7476 -4.2109 0.0 0
M  V30 2 C 4.4386 -3.2599 0.0 0
M  V30 3 O 3.4605 -3.0519 0.0 0
M  V30 4 C 5.1078 -2.5167 0.0 0
M  V30 5 C 4.7987 -1.5657 0.0 0
M  V30 6 C 3.8206 -1.3577 0.0 0
M  V30 7 C 5.4679 -0.8225 0.0 0
M  V30 8 C 3.5116 -0.4067 0.0 0
M  V30 9 C 5.1588 0.1284 0.0 0
M  V30 10 C 4.1807 0.3364 0.0 0
M  V30 11 C 2.598 0.0 0.0 0
M  V30 12 N 3.6807 1.2024 0.0 0
M  V30 13 C 2.7026 0.9945 0.0 0
M  V30 14 C 1.732 -0.5 0.0 0
M  V30 15 C 1.9594 1.6636 0.0 0
M  V30 16 C 0.866 0.0 0.0 0
M  V30 17 C 2.1673 2.6418 0.0 0
M  V30 18 C 1.0084 1.3546 0.0 0
M  V30 19 C 0.0 -0.5 0.0 0
M  V30 20 C 1.4242 3.3109 0.0 0
M  V30 21 C 0.2652 2.0237 0.0 0
M  V30 22 C -0.866 0.0 0.0 0
M  V30 23 C 0.0 -1.4999 0.0 0
M  V30 24 C 0.4731 3.0019 0.0 0
M  V30 25 C -1.732 -0.4999 0.0 0
M  V30 26 C -0.866 -1.9999 0.0 0
M  V30 27 C -1.732 -1.4999 0.0 0
M  V30 28 O -2.598 -1.9999 0.0 0
M  V30 29 C -2.598 -2.9999 0.0 0
M  V30 END ATOM
M  V30 BEGIN BOND
M  V30 1 2 1 2
M  V30 2 1 2 3
M  V30 3 1 2 4
M  V30 4 1 4 5
M  V30 5 2 5 6
M  V30 6 1 5 7
M  V30 7 1 6 8
M  V30 8 2 7 9
M  V30 9 2 8 10
M  V30 10 1 8 11
M  V30 11 1 10 12
M  V30 12 2 11 13
M  V30 13 1 11 14
M  V30 14 1 13 15
M  V30 15 1 14 16
M  V30 16 2 15 17
M  V30 17 1 15 18
M  V30 18 1 16 19
M  V30 19 1 17 20
M  V30 20 2 18 21
M  V30 21 2 19 22
M  V30 22 1 19 23
M  V30 23 2 20 24
M  V30 24 1 22 25
M  V30 25 2 23 26
M  V30 26 2 25 27
M  V30 27 1 27 28
M  V30 28 1 28 29
M  V30 29 1 9 10
M  V30 30 1 12 13
M  V30 31 1 21 24
M  V30 32 1 26 27
M  V30 END BOND
M  V30 END CTAB
M  END
>  <Molecule ChEMBL ID>
CHEMBL320553

>  <Smiles>
COc1ccc(CCc2c(-c3ccccc3)[nH]c3ccc(CC(=O)O)cc23)cc1

>  <IC50_nM>
50

>  <Assay Description>
Inhibitory concentration of the PPAR gamma)

$$$$
CHEMBL3699431
Actelion Java MolfileCreator 2.0

  0  0  0  0  0  0              0 V3000
M  V30 BEGIN CTAB
M  V30 COUNTS 41 46 0 0 0
M  V30 BEGIN ATOM
M  V30 1 O 11.8592 -3.5669 0.0 0
M  V30 2 C 10.8811 -3.7748 0.0 0
M  V30 3 O 10.212 -3.0316 0.0 0
M  V30 4 C 10.5721 -4.7258 0.0 0
M  V30 5 C 9.5939 -4.9337 0.0 0
M  V30 6 C 11.2412 -5.469 0.0 0
M  V30 7 C 8.9248 -4.1906 0.0 0
M  V30 8 C 9.2849 -5.8848 0.0 0
M  V30 9 C 10.9322 -6.42 0.0 0
M  V30 10 C 9.2338 -3.2395 0.0 0
M  V30 11 C 7.9466 -4.3985 0.0 0
M  V30 12 C 9.954 -6.6279 0.0 0
M  V30 13 C 8.5647 -2.4964 0.0 0
M  V30 14 C 7.2775 -3.6554 0.0 0
M  V30 15 C 7.5865 -2.7043 0.0 0
M  V30 16 C 6.9174 -1.9612 0.0 0
M  V30 17 N 5.9392 -2.1691 0.0 0
M  V30 18 C 5.1961 -1.4999 0.0 0
M  V30 19 C 5.5325 -3.0826 0.0 0
M  V30 20 C 4.3301 -1.9999 0.0 0
M  V30 21 C 5.1961 -0.4999 0.0 0
M  V30 22 C 4.538 -2.9781 0.0 0
M  V30 23 C 6.0325 -3.9487 0.0 0
M  V30 24 C 3.4641 -1.5 0.0 0
M  V30 25 C 4.3301 0.0 0.0 0
M  V30 26 C 3.8689 -3.7212 0.0 0
M  V30 27 C 3.4641 -0.5 0.0 0
M  V30 28 C 2.598 0.0 0.0 0
M  V30 29 O 2.598 1.0 0.0 0
M  V30 30 N 1.732 -0.5 0.0 0
M  V30 31 C 0.866 0.0 0.0 0 CFG=2
M  V30 32 C 0.866 1.0 0.0 0
M  V30 33 C 0.0 -0.5 0.0 0
M  V30 34 C 1.732 1.4999 0.0 0
M  V30 35 C 0.0 1.4999 0.0 0
M  V30 36 C 1.732 2.5 0.0 0
M  V30 37 C 0.0 2.5 0.0 0
M  V30 38 C 0.866 3.0 0.0 0
M  V30 39 C 0.866 4.0 0.0 0
M  V30 40 C 1.366 4.866 0.0 0
M  V30 41 C 0.366 4.866 0.0 0
M  V30 END ATOM
M  V30 BEGIN BOND
M  V30 1 2 1 2
M  V30 2 1 2 3
M  V30 3 1 2 4
M  V30 4 2 4 5
M  V30 5 1 4 6
M  V30 6 1 5 7
M  V30 7 1 5 8
M  V30 8 2 6 9
M  V30 9 2 7 10
M  V30 10 1 7 11
M  V30 11 2 8 12
M  V30 12 1 10 13
M  V30 13 2 11 14
M  V30 14 2 13 15
M  V30 15 1 15 16
M  V30 16 1 16 17
M  V30 17 1 17 18
M  V30 18 1 17 19
M  V30 19 2 18 20
M  V30 20 1 18 21
M  V30 21 2 19 22
M  V30 22 1 19 23
M  V30 23 1 20 24
M  V30 24 2 21 25
M  V30 25 1 22 26
M  V30 26 2 24 27
M  V30 27 1 27 28
M  V30 28 2 28 29
M  V30 29 1 28 30
M  V30 30 1 30 31
M  V30 31 1 31 32
M  V30 32 1 31 33 CFG=1
M  V30 33 2 32 34
M  V30 34 1 32 35
M  V30 35 1 34 36
M  V30 36 2 35 37
M  V30 37 2 36 38
M  V30 38 1 38 39
M  V30 39 1 39 40
M  V30 40 1 39 41
M  V30 41 1 9 12
M  V30 42 1 14 15
M  V30 43 1 20 22
M  V30 44 1 25 27
M  V30 45 1 37 38
M  V30 46 1 40 41
M  V30 END BOND
M  V30 BEGIN COLLECTION
M  V30 MDLV30/STEABS ATOMS=(1 31)
M  V30 END COLLECTION
M  V30 END CTAB
M  END
>  <Molecule ChEMBL ID>
CHEMBL3699431

>  <Smiles>
Cc1c(C)n(Cc2ccc(-c3ccccc3C(=O)O)cc2)c2ccc(C(=O)N[C@@H](C)c3ccc(C4CC4)cc3)cc12

>  <IC50_nM>
50

>  <Assay Description>
Lanthascreen Competitive Binding Assay: The assay was performed according to manufacturer protocol. A mixture of nM GST-PPARG-LBD, 5 nM Tb-GST-antibody, 5 nM Fluormone Pan-PPAR Green, and serial dilutions of the experimental compound, beginning at 10 ׬M downwards, was added to wells of black 384-well low-volume plates (Greiner) to a total volume of 18 ׬L. All dilutions were made in TR-FRET assay buffer C. DMSO at 2% final concentration was used as a no-ligand control. Experiment was performed in triplicate, and incubated for 2 hours in the dark prior to assay read in Perkin Elmer ViewLux ultra HTS microplate reader. FRET signal was measured by excitation at 340 nm and emission at 520 nm for fluorescein and 490 nm for terbium. Fold change over DMSO was calculated using GraphPad Prism Software (La Jolla, Calif.) by calculating 520 nm/490 nm ratio. Graphs were plotted as fold change of FRET signal for compound treatment over DMSO-only control.

$$$$
CHEMBL218789
Actelion Java MolfileCreator 2.0

  0  0  0  0  0  0              0 V3000
M  V30 BEGIN CTAB
M  V30 COUNTS 40 44 0 0 0
M  V30 BEGIN ATOM
M  V30 1 S 3.8971 0.0 0.0 0
M  V30 2 O 4.6471 1.299 0.0 0
M  V30 3 O 3.1471 1.299 0.0 0
M  V30 4 N 2.598 -0.75 0.0 0
M  V30 5 C 5.1961 -0.75 0.0 0
M  V30 6 C 1.299 0.0 0.0 0
M  V30 7 C 5.1961 -2.25 0.0 0
M  V30 8 C 6.4951 0.0 0.0 0
M  V30 9 O 1.299 1.5 0.0 0
M  V30 10 C 0.0 -0.75 0.0 0
M  V30 11 C 6.4951 -3.0 0.0 0
M  V30 12 C 7.7942 -0.75 0.0 0
M  V30 13 N -1.3703 -0.1398 0.0 0
M  V30 14 C -0.1567 -2.2417 0.0 0
M  V30 15 C 7.7942 -2.25 0.0 0
M  V30 16 C 6.4951 -4.5 0.0 0
M  V30 17 C -2.374 -1.2546 0.0 0
M  V30 18 C -1.6821 1.3273 0.0 0
M  V30 19 C -1.624 -2.5536 0.0 0
M  V30 20 F 7.9951 -4.5 0.0 0
M  V30 21 F 6.4951 -6.0 0.0 0
M  V30 22 F 4.9951 -4.5 0.0 0
M  V30 23 C -3.874 -1.2546 0.0 0
M  V30 24 C -3.1087 1.7908 0.0 0
M  V30 25 C -2.374 -3.8526 0.0 0
M  V30 26 C -4.624 -2.5536 0.0 0
M  V30 27 C -3.4206 3.258 0.0 0
M  V30 28 C -4.2234 0.7871 0.0 0
M  V30 29 C -3.874 -3.8526 0.0 0
M  V30 30 C -4.8472 3.7216 0.0 0
M  V30 31 C -5.65 1.2506 0.0 0
M  V30 32 O -5.159 5.1888 0.0 0
M  V30 33 C -5.9619 2.7179 0.0 0
M  V30 34 C -4.0443 6.1925 0.0 0
M  V30 35 C -4.3562 7.6597 0.0 0
M  V30 36 C -3.2415 8.6634 0.0 0
M  V30 37 C -5.7828 8.1232 0.0 0
M  V30 38 C -3.5533 10.1306 0.0 0
M  V30 39 C -6.0946 9.5904 0.0 0
M  V30 40 C -4.9799 10.5941 0.0 0
M  V30 END ATOM
M  V30 BEGIN BOND
M  V30 1 2 1 2
M  V30 2 2 1 3
M  V30 3 1 1 4
M  V30 4 1 1 5
M  V30 5 1 4 6
M  V30 6 2 5 7
M  V30 7 1 5 8
M  V30 8 2 6 9
M  V30 9 1 6 10
M  V30 10 1 7 11
M  V30 11 2 8 12
M  V30 12 1 10 13
M  V30 13 2 10 14
M  V30 14 2 11 15
M  V30 15 1 11 16
M  V30 16 1 13 17
M  V30 17 1 13 18
M  V30 18 1 14 19
M  V30 19 1 16 20
M  V30 20 1 16 21
M  V30 21 1 16 22
M  V30 22 1 17 23
M  V30 23 1 18 24
M  V30 24 1 19 25
M  V30 25 2 23 26
M  V30 26 2 24 27
M  V30 27 1 24 28
M  V30 28 2 25 29
M  V30 29 1 27 30
M  V30 30 2 28 31
M  V30 31 1 30 32
M  V30 32 2 30 33
M  V30 33 1 32 34
M  V30 34 1 34 35
M  V30 35 2 35 36
M  V30 36 1 35 37
M  V30 37 1 36 38
M  V30 38 2 37 39
M  V30 39 2 38 40
M  V30 40 1 12 15
M  V30 41 2 17 19
M  V30 42 1 26 29
M  V30 43 1 31 33
M  V30 44 1 39 40
M  V30 END BOND
M  V30 END CTAB
M  END
>  <Molecule ChEMBL ID>
CHEMBL218789

>  <Smiles>
O=C(NS(=O)(=O)c1cccc(C(F)(F)F)c1)c1cc2ccccc2n1Cc1cccc(OCc2ccccc2)c1

>  <IC50_nM>
50

>  <Assay Description>
Displacement of Fluormone from PPAR gamma

$$$$
CHEMBL201880
Actelion Java MolfileCreator 2.0

  0  0  0  0  0  0              0 V3000
M  V30 BEGIN CTAB
M  V30 COUNTS 39 43 0 0 0
M  V30 BEGIN ATOM
M  V30 1 O 9.5262 -2.9999 0.0 0
M  V30 2 C 8.6602 -3.5 0.0 0
M  V30 3 C 7.7942 -2.9999 0.0 0
M  V30 4 C 8.6602 -4.5 0.0 0
M  V30 5 C 7.7942 -1.9999 0.0 0
M  V30 6 C 6.9282 -3.4999 0.0 0
M  V30 7 C 7.7942 -4.9999 0.0 0
M  V30 8 C 9.5262 -5.0 0.0 0
M  V30 9 C 6.9282 -1.4999 0.0 0
M  V30 10 C 6.0621 -2.9999 0.0 0
M  V30 11 C 7.7942 -5.9999 0.0 0
M  V30 12 C 9.5262 -6.0 0.0 0
M  V30 13 C 6.0621 -1.9999 0.0 0
M  V30 14 C 6.9282 -0.5 0.0 0
M  V30 15 C 8.6602 -6.4999 0.0 0
M  V30 16 C 5.1961 -1.4999 0.0 0
M  V30 17 C 6.0621 0.0 0.0 0
M  V30 18 C 5.1961 -0.5 0.0 0
M  V30 19 C 4.3301 -1.9999 0.0 0
M  V30 20 O 4.3301 0.0 0.0 0
M  V30 21 C 3.4641 -1.4999 0.0 0
M  V30 22 C 3.4641 -0.5 0.0 0
M  V30 23 C 2.598 -1.9999 0.0 0
M  V30 24 C 2.598 0.0 0.0 0
M  V30 25 C 1.732 -0.5 0.0 0
M  V30 26 O 0.866 0.0 0.0 0
M  V30 27 C 0.0 -0.5 0.0 0
M  V30 28 C 0.0 -1.4999 0.0 0
M  V30 29 C -0.866 0.0 0.0 0
M  V30 30 C -0.866 -1.9999 0.0 0
M  V30 31 C -1.732 -0.4999 0.0 0
M  V30 32 C -1.732 -1.4999 0.0 0
M  V30 33 C -1.0739 -2.9781 0.0 0
M  V30 34 N -2.4751 -2.1691 0.0 0
M  V30 35 C -2.0684 -3.0826 0.0 0
M  V30 36 C -3.4533 -1.9612 0.0 0
M  V30 37 C -3.7623 -1.0101 0.0 0
M  V30 38 O -3.0932 -0.267 0.0 0
M  V30 39 O -4.7405 -0.8022 0.0 0
M  V30 END ATOM
M  V30 BEGIN BOND
M  V30 1 2 1 2
M  V30 2 1 2 3
M  V30 3 1 2 4
M  V30 4 2 3 5
M  V30 5 1 3 6
M  V30 6 2 4 7
M  V30 7 1 4 8
M  V30 8 1 5 9
M  V30 9 2 6 10
M  V30 10 1 7 11
M  V30 11 2 8 12
M  V30 12 1 9 13
M  V30 13 2 9 14
M  V30 14 2 11 15
M  V30 15 2 13 16
M  V30 16 1 14 17
M  V30 17 1 16 18
M  V30 18 1 16 19
M  V30 19 1 18 20
M  V30 20 1 19 21
M  V30 21 1 20 22
M  V30 22 1 21 23
M  V30 23 1 22 24
M  V30 24 1 24 25
M  V30 25 1 25 26
M  V30 26 1 26 27
M  V30 27 2 27 28
M  V30 28 1 27 29
M  V30 29 1 28 30
M  V30 30 2 29 31
M  V30 31 2 30 32
M  V30 32 1 30 33
M  V30 33 1 32 34
M  V30 34 2 33 35
M  V30 35 1 34 36
M  V30 36 1 36 37
M  V30 37 2 37 38
M  V30 38 1 37 39
M  V30 39 1 10 13
M  V30 40 1 12 15
M  V30 41 2 17 18
M  V30 42 1 31 32
M  V30 43 1 34 35
M  V30 END BOND
M  V30 END CTAB
M  END
>  <Molecule ChEMBL ID>
CHEMBL201880

>  <Smiles>
CCCc1c(OCCCOc2ccc3c(ccn3CC(=O)O)c2)ccc2cc(C(=O)c3ccccc3)ccc12

>  <IC50_nM>
50

>  <Assay Description>
Agonist activity at PPARgamma

$$$$
CHEMBL373685
Actelion Java MolfileCreator 2.0

  0  0  0  0  0  0              0 V3000
M  V30 BEGIN CTAB
M  V30 COUNTS 41 44 0 0 0
M  V30 BEGIN ATOM
M  V30 1 O 2.598 1.0 0.0 0
M  V30 2 C 2.598 0.0 0.0 0
M  V30 3 O 3.4641 -0.5 0.0 0
M  V30 4 N 1.732 -0.5 0.0 0
M  V30 5 C 4.3301 0.0 0.0 0
M  V30 6 C 0.866 0.0 0.0 0
M  V30 7 C 5.1961 -0.5 0.0 0
M  V30 8 C 4.3301 1.0 0.0 0
M  V30 9 C 0.0 -0.5 0.0 0
M  V30 10 C -0.866 0.0 0.0 0
M  V30 11 C 0.0 -1.4999 0.0 0
M  V30 12 C -1.732 -0.4999 0.0 0
M  V30 13 C -0.866 1.0 0.0 0
M  V30 14 C -0.866 -1.9999 0.0 0
M  V30 15 C -1.732 -1.4999 0.0 0
M  V30 16 C -1.732 1.5 0.0 0
M  V30 17 O -0.866 -2.9999 0.0 0
M  V30 18 C -1.732 2.5 0.0 0
M  V30 19 C 0.0 -3.4999 0.0 0
M  V30 20 O -0.866 3.0 0.0 0
M  V30 21 O -2.598 3.0 0.0 0
M  V30 22 C 0.0 -4.4999 0.0 0
M  V30 23 C 0.866 -5.0 0.0 0
M  V30 24 N 0.9705 -5.9945 0.0 0
M  V30 25 C 1.7795 -4.5932 0.0 0
M  V30 26 C 1.9487 -6.2024 0.0 0
M  V30 27 O 2.4487 -5.3364 0.0 0
M  V30 28 C 1.9874 -3.6151 0.0 0
M  V30 29 C 2.3554 -7.1159 0.0 0
M  V30 30 C 1.7676 -7.9249 0.0 0
M  V30 31 C 3.3499 -7.2205 0.0 0
M  V30 32 C 2.1743 -8.8385 0.0 0
M  V30 33 C 3.7566 -8.134 0.0 0
M  V30 34 C 3.1689 -8.943 0.0 0
M  V30 35 O 3.5756 -9.8566 0.0 0
M  V30 36 C 4.5701 -9.9611 0.0 0
M  V30 37 C 4.9769 -10.8746 0.0 0
M  V30 38 C 5.1579 -9.1521 0.0 0
M  V30 39 C 5.9714 -10.9792 0.0 0
M  V30 40 C 6.1524 -9.2566 0.0 0
M  V30 41 C 6.5592 -10.1702 0.0 0
M  V30 END ATOM
M  V30 BEGIN BOND
M  V30 1 2 1 2
M  V30 2 1 2 3
M  V30 3 1 2 4
M  V30 4 1 3 5
M  V30 5 1 4 6
M  V30 6 1 5 7
M  V30 7 1 5 8
M  V30 8 1 6 9
M  V30 9 2 9 10
M  V30 10 1 9 11
M  V30 11 1 10 12
M  V30 12 1 10 13
M  V30 13 2 11 14
M  V30 14 2 12 15
M  V30 15 1 13 16
M  V30 16 1 14 17
M  V30 17 1 16 18
M  V30 18 1 17 19
M  V30 19 2 18 20
M  V30 20 1 18 21
M  V30 21 1 19 22
M  V30 22 1 22 23
M  V30 23 1 23 24
M  V30 24 2 23 25
M  V30 25 2 24 26
M  V30 26 1 25 27
M  V30 27 1 25 28
M  V30 28 1 26 29
M  V30 29 2 29 30
M  V30 30 1 29 31
M  V30 31 1 30 32
M  V30 32 2 31 33
M  V30 33 2 32 34
M  V30 34 1 34 35
M  V30 35 1 35 36
M  V30 36 2 36 37
M  V30 37 1 36 38
M  V30 38 1 37 39
M  V30 39 2 38 40
M  V30 40 2 39 41
M  V30 41 1 14 15
M  V30 42 1 26 27
M  V30 43 1 33 34
M  V30 44 1 40 41
M  V30 END BOND
M  V30 END CTAB
M  END
>  <Molecule ChEMBL ID>
CHEMBL373685

>  <Smiles>
Cc1oc(-c2ccc(Oc3ccccc3)cc2)nc1CCOc1ccc(CCC(=O)O)c(CNC(=O)OC(C)C)c1

>  <IC50_nM>
50

>  <Assay Description>
Displacement of [3H]2-methyl-2-(4-{3-propyl-(5-pyridin-2yl-thiophene-2-sulfonyl)-amino]-pro-pyl}-phenoxy)-propionic acid from human PPARgamma

$$$$
CHEMBL401236
Actelion Java MolfileCreator 2.0

  0  0  0  0  0  0              0 V3000
M  V30 BEGIN CTAB
M  V30 COUNTS 37 40 0 0 0
M  V30 BEGIN ATOM
M  V30 1 Cl 6.5467 -3.4344 0.0 0
M  V30 2 C 6.0467 -2.5684 0.0 0
M  V30 3 C 5.0467 -2.5684 0.0 0
M  V30 4 C 6.5467 -1.7024 0.0 0
M  V30 5 C 4.5467 -1.7024 0.0 0
M  V30 6 C 6.0467 -0.8364 0.0 0
M  V30 7 C 5.0467 -0.8364 0.0 0
M  V30 8 C 3.5686 -1.4945 0.0 0
M  V30 9 S 4.3776 -0.0932 0.0 0
M  V30 10 C 3.4641 -0.5 0.0 0
M  V30 11 C 2.8254 -2.1636 0.0 0
M  V30 12 C 2.598 0.0 0.0 0
M  V30 13 O 2.598 1.0 0.0 0
M  V30 14 N 1.732 -0.5 0.0 0
M  V30 15 C 0.866 0.0 0.0 0 CFG=1
M  V30 16 C 0.866 1.0 0.0 0
M  V30 17 C 0.0 -0.5 0.0 0
M  V30 18 C 1.732 1.4999 0.0 0
M  V30 19 C 0.0 1.4999 0.0 0
M  V30 20 C 1.732 2.4999 0.0 0
M  V30 21 C 0.0 2.4999 0.0 0
M  V30 22 F 2.598 2.9999 0.0 0
M  V30 23 C 0.866 2.9999 0.0 0
M  V30 24 O -0.866 2.9999 0.0 0
M  V30 25 C -1.732 2.4999 0.0 0
M  V30 26 C -2.598 2.9999 0.0 0
M  V30 27 C -1.732 1.4999 0.0 0
M  V30 28 C -3.4641 2.4999 0.0 0
M  V30 29 C -2.598 0.9999 0.0 0
M  V30 30 C -3.4641 1.4999 0.0 0
M  V30 31 C -4.3301 2.9999 0.0 0
M  V30 32 C -4.3301 0.9999 0.0 0
M  V30 33 C -5.1961 2.4999 0.0 0
M  V30 34 C -4.3301 0.0 0.0 0
M  V30 35 C -5.1961 -0.5 0.0 0
M  V30 36 O -6.0621 0.0 0.0 0
M  V30 37 O -5.1961 -1.5 0.0 0
M  V30 END ATOM
M  V30 BEGIN BOND
M  V30 1 1 1 2
M  V30 2 2 2 3
M  V30 3 1 2 4
M  V30 4 1 3 5
M  V30 5 2 4 6
M  V30 6 2 5 7
M  V30 7 1 5 8
M  V30 8 1 7 9
M  V30 9 2 8 10
M  V30 10 1 8 11
M  V30 11 1 10 12
M  V30 12 2 12 13
M  V30 13 1 12 14
M  V30 14 1 14 15
M  V30 15 1 15 16
M  V30 16 1 15 17 CFG=3
M  V30 17 2 16 18
M  V30 18 1 16 19
M  V30 19 1 18 20
M  V30 20 2 19 21
M  V30 21 1 20 22
M  V30 22 2 20 23
M  V30 23 1 21 24
M  V30 24 1 24 25
M  V30 25 2 25 26
M  V30 26 1 25 27
M  V30 27 1 26 28
M  V30 28 2 27 29
M  V30 29 2 28 30
M  V30 30 1 28 31
M  V30 31 1 30 32
M  V30 32 1 31 33
M  V30 33 1 32 34
M  V30 34 1 34 35
M  V30 35 2 35 36
M  V30 36 1 35 37
M  V30 37 1 6 7
M  V30 38 1 9 10
M  V30 39 1 21 23
M  V30 40 1 29 30
M  V30 END BOND
M  V30 BEGIN COLLECTION
M  V30 MDLV30/STEABS ATOMS=(1 15)
M  V30 END COLLECTION
M  V30 END CTAB
M  END
>  <Molecule ChEMBL ID>
CHEMBL401236

>  <Smiles>
CCc1cc(Oc2cc(F)cc([C@@H](C)NC(=O)c3sc4ccc(Cl)cc4c3C)c2)ccc1CCC(=O)O

>  <IC50_nM>
50

>  <Assay Description>
Agonist activity at PPARgamma

$$$$
CHEMBL201880
Actelion Java MolfileCreator 2.0

  0  0  0  0  0  0              0 V3000
M  V30 BEGIN CTAB
M  V30 COUNTS 39 43 0 0 0
M  V30 BEGIN ATOM
M  V30 1 O 9.5262 -2.9999 0.0 0
M  V30 2 C 8.6602 -3.5 0.0 0
M  V30 3 C 7.7942 -2.9999 0.0 0
M  V30 4 C 8.6602 -4.5 0.0 0
M  V30 5 C 7.7942 -1.9999 0.0 0
M  V30 6 C 6.9282 -3.4999 0.0 0
M  V30 7 C 7.7942 -4.9999 0.0 0
M  V30 8 C 9.5262 -5.0 0.0 0
M  V30 9 C 6.9282 -1.4999 0.0 0
M  V30 10 C 6.0621 -2.9999 0.0 0
M  V30 11 C 7.7942 -5.9999 0.0 0
M  V30 12 C 9.5262 -6.0 0.0 0
M  V30 13 C 6.0621 -1.9999 0.0 0
M  V30 14 C 6.9282 -0.5 0.0 0
M  V30 15 C 8.6602 -6.4999 0.0 0
M  V30 16 C 5.1961 -1.4999 0.0 0
M  V30 17 C 6.0621 0.0 0.0 0
M  V30 18 C 5.1961 -0.5 0.0 0
M  V30 19 C 4.3301 -1.9999 0.0 0
M  V30 20 O 4.3301 0.0 0.0 0
M  V30 21 C 3.4641 -1.4999 0.0 0
M  V30 22 C 3.4641 -0.5 0.0 0
M  V30 23 C 2.598 -1.9999 0.0 0
M  V30 24 C 2.598 0.0 0.0 0
M  V30 25 C 1.732 -0.5 0.0 0
M  V30 26 O 0.866 0.0 0.0 0
M  V30 27 C 0.0 -0.5 0.0 0
M  V30 28 C 0.0 -1.4999 0.0 0
M  V30 29 C -0.866 0.0 0.0 0
M  V30 30 C -0.866 -1.9999 0.0 0
M  V30 31 C -1.732 -0.4999 0.0 0
M  V30 32 C -1.732 -1.4999 0.0 0
M  V30 33 C -1.0739 -2.9781 0.0 0
M  V30 34 N -2.4751 -2.1691 0.0 0
M  V30 35 C -2.0684 -3.0826 0.0 0
M  V30 36 C -3.4533 -1.9612 0.0 0
M  V30 37 C -3.7623 -1.0101 0.0 0
M  V30 38 O -3.0932 -0.267 0.0 0
M  V30 39 O -4.7405 -0.8022 0.0 0
M  V30 END ATOM
M  V30 BEGIN BOND
M  V30 1 2 1 2
M  V30 2 1 2 3
M  V30 3 1 2 4
M  V30 4 2 3 5
M  V30 5 1 3 6
M  V30 6 2 4 7
M  V30 7 1 4 8
M  V30 8 1 5 9
M  V30 9 2 6 10
M  V30 10 1 7 11
M  V30 11 2 8 12
M  V30 12 1 9 13
M  V30 13 2 9 14
M  V30 14 2 11 15
M  V30 15 2 13 16
M  V30 16 1 14 17
M  V30 17 1 16 18
M  V30 18 1 16 19
M  V30 19 1 18 20
M  V30 20 1 19 21
M  V30 21 1 20 22
M  V30 22 1 21 23
M  V30 23 1 22 24
M  V30 24 1 24 25
M  V30 25 1 25 26
M  V30 26 1 26 27
M  V30 27 2 27 28
M  V30 28 1 27 29
M  V30 29 1 28 30
M  V30 30 2 29 31
M  V30 31 2 30 32
M  V30 32 1 30 33
M  V30 33 1 32 34
M  V30 34 2 33 35
M  V30 35 1 34 36
M  V30 36 1 36 37
M  V30 37 2 37 38
M  V30 38 1 37 39
M  V30 39 1 10 13
M  V30 40 1 12 15
M  V30 41 2 17 18
M  V30 42 1 31 32
M  V30 43 1 34 35
M  V30 END BOND
M  V30 END CTAB
M  END
>  <Molecule ChEMBL ID>
CHEMBL201880

>  <Smiles>
CCCc1c(OCCCOc2ccc3c(ccn3CC(=O)O)c2)ccc2cc(C(=O)c3ccccc3)ccc12

>  <IC50_nM>
50

>  <Assay Description>
Displacement of [3H]rosiglitazone from human PPAR gamma by SPA assay

$$$$
CHEMBL2331787
Actelion Java MolfileCreator 2.0

  0  0  0  0  0  0              0 V3000
M  V30 BEGIN CTAB
M  V30 COUNTS 34 36 0 0 0
M  V30 BEGIN ATOM
M  V30 1 Cl 10.3923 2.25 0.0 0
M  V30 2 C 11.6913 1.5 0.0 0
M  V30 3 C 11.6913 0.0 0.0 0
M  V30 4 C 12.9903 2.25 0.0 0
M  V30 5 S 10.3923 -0.75 0.0 0
M  V30 6 C 12.9903 -0.75 0.0 0
M  V30 7 C 14.2894 1.5 0.0 0
M  V30 8 O 9.6423 -2.049 0.0 0
M  V30 9 O 11.1423 -2.049 0.0 0
M  V30 10 N 9.0932 0.0 0.0 0
M  V30 11 C 14.2894 0.0 0.0 0
M  V30 12 C 15.5884 2.25 0.0 0
M  V30 13 C 7.7942 -0.75 0.0 0
M  V30 14 F 14.8384 3.549 0.0 0
M  V30 15 F 16.8875 3.0 0.0 0
M  V30 16 F 16.3384 0.9509 0.0 0
M  V30 17 C 6.4951 0.0 0.0 0
M  V30 18 C 7.7942 -2.25 0.0 0
M  V30 19 C 5.1961 -0.75 0.0 0
M  V30 20 C 6.4951 -3.0 0.0 0
M  V30 21 C 5.1961 -2.25 0.0 0
M  V30 22 C 3.8971 0.0 0.0 0
M  V30 23 O 3.8971 -3.0 0.0 0
M  V30 24 O 3.8971 1.5 0.0 0
M  V30 25 N 2.598 -0.75 0.0 0
M  V30 26 C 3.8971 -4.5 0.0 0
M  V30 27 C 1.299 0.0 0.0 0
M  V30 28 C 2.598 -5.25 0.0 0
M  V30 29 C 5.1961 -5.25 0.0 0
M  V30 30 C 0.0 -0.75 0.0 0
M  V30 31 N 2.598 -6.75 0.0 0
M  V30 32 C 5.1961 -6.75 0.0 0
M  V30 33 C 3.8971 -7.5 0.0 0
M  V30 34 Cl 6.4951 -7.5 0.0 0
M  V30 END ATOM
M  V30 BEGIN BOND
M  V30 1 1 1 2
M  V30 2 2 2 3
M  V30 3 1 2 4
M  V30 4 1 3 5
M  V30 5 1 3 6
M  V30 6 2 4 7
M  V30 7 2 5 8
M  V30 8 2 5 9
M  V30 9 1 5 10
M  V30 10 2 6 11
M  V30 11 1 7 12
M  V30 12 1 10 13
M  V30 13 1 12 14
M  V30 14 1 12 15
M  V30 15 1 12 16
M  V30 16 2 13 17
M  V30 17 1 13 18
M  V30 18 1 17 19
M  V30 19 2 18 20
M  V30 20 2 19 21
M  V30 21 1 19 22
M  V30 22 1 21 23
M  V30 23 2 22 24
M  V30 24 1 22 25
M  V30 25 1 23 26
M  V30 26 1 25 27
M  V30 27 2 26 28
M  V30 28 1 26 29
M  V30 29 1 27 30
M  V30 30 1 28 31
M  V30 31 2 29 32
M  V30 32 2 31 33
M  V30 33 1 32 34
M  V30 34 1 7 11
M  V30 35 1 20 21
M  V30 36 1 32 33
M  V30 END BOND
M  V30 END CTAB
M  END
>  <Molecule ChEMBL ID>
CHEMBL2331787

>  <Smiles>
CCNC(=O)c1cc(NS(=O)(=O)c2ccc(C(F)(F)F)cc2Cl)ccc1Oc1cncc(Cl)c1

>  <IC50_nM>
50

>  <Assay Description>
Displacement of [3H]-rosiglitazone from GST-tagged PPARgammaLBD (unknown origin) after 1 hr by scintillation proximity assay

$$$$
CHEMBL401236
Actelion Java MolfileCreator 2.0

  0  0  0  0  0  0              0 V3000
M  V30 BEGIN CTAB
M  V30 COUNTS 37 40 0 0 0
M  V30 BEGIN ATOM
M  V30 1 Cl 6.5467 -3.4344 0.0 0
M  V30 2 C 6.0467 -2.5684 0.0 0
M  V30 3 C 5.0467 -2.5684 0.0 0
M  V30 4 C 6.5467 -1.7024 0.0 0
M  V30 5 C 4.5467 -1.7024 0.0 0
M  V30 6 C 6.0467 -0.8364 0.0 0
M  V30 7 C 5.0467 -0.8364 0.0 0
M  V30 8 C 3.5686 -1.4945 0.0 0
M  V30 9 S 4.3776 -0.0932 0.0 0
M  V30 10 C 3.4641 -0.5 0.0 0
M  V30 11 C 2.8254 -2.1636 0.0 0
M  V30 12 C 2.598 0.0 0.0 0
M  V30 13 O 2.598 1.0 0.0 0
M  V30 14 N 1.732 -0.5 0.0 0
M  V30 15 C 0.866 0.0 0.0 0 CFG=1
M  V30 16 C 0.866 1.0 0.0 0
M  V30 17 C 0.0 -0.5 0.0 0
M  V30 18 C 1.732 1.4999 0.0 0
M  V30 19 C 0.0 1.4999 0.0 0
M  V30 20 C 1.732 2.4999 0.0 0
M  V30 21 C 0.0 2.4999 0.0 0
M  V30 22 F 2.598 2.9999 0.0 0
M  V30 23 C 0.866 2.9999 0.0 0
M  V30 24 O -0.866 2.9999 0.0 0
M  V30 25 C -1.732 2.4999 0.0 0
M  V30 26 C -2.598 2.9999 0.0 0
M  V30 27 C -1.732 1.4999 0.0 0
M  V30 28 C -3.4641 2.4999 0.0 0
M  V30 29 C -2.598 0.9999 0.0 0
M  V30 30 C -3.4641 1.4999 0.0 0
M  V30 31 C -4.3301 2.9999 0.0 0
M  V30 32 C -4.3301 0.9999 0.0 0
M  V30 33 C -5.1961 2.4999 0.0 0
M  V30 34 C -4.3301 0.0 0.0 0
M  V30 35 C -5.1961 -0.5 0.0 0
M  V30 36 O -6.0621 0.0 0.0 0
M  V30 37 O -5.1961 -1.5 0.0 0
M  V30 END ATOM
M  V30 BEGIN BOND
M  V30 1 1 1 2
M  V30 2 2 2 3
M  V30 3 1 2 4
M  V30 4 1 3 5
M  V30 5 2 4 6
M  V30 6 2 5 7
M  V30 7 1 5 8
M  V30 8 1 7 9
M  V30 9 2 8 10
M  V30 10 1 8 11
M  V30 11 1 10 12
M  V30 12 2 12 13
M  V30 13 1 12 14
M  V30 14 1 14 15
M  V30 15 1 15 16
M  V30 16 1 15 17 CFG=3
M  V30 17 2 16 18
M  V30 18 1 16 19
M  V30 19 1 18 20
M  V30 20 2 19 21
M  V30 21 1 20 22
M  V30 22 2 20 23
M  V30 23 1 21 24
M  V30 24 1 24 25
M  V30 25 2 25 26
M  V30 26 1 25 27
M  V30 27 1 26 28
M  V30 28 2 27 29
M  V30 29 2 28 30
M  V30 30 1 28 31
M  V30 31 1 30 32
M  V30 32 1 31 33
M  V30 33 1 32 34
M  V30 34 1 34 35
M  V30 35 2 35 36
M  V30 36 1 35 37
M  V30 37 1 6 7
M  V30 38 1 9 10
M  V30 39 1 21 23
M  V30 40 1 29 30
M  V30 END BOND
M  V30 BEGIN COLLECTION
M  V30 MDLV30/STEABS ATOMS=(1 15)
M  V30 END COLLECTION
M  V30 END CTAB
M  END
>  <Molecule ChEMBL ID>
CHEMBL401236

>  <Smiles>
CCc1cc(Oc2cc(F)cc([C@@H](C)NC(=O)c3sc4ccc(Cl)cc4c3C)c2)ccc1CCC(=O)O

>  <IC50_nM>
50

>  <Assay Description>
Displacement of [3H]2-methyl-2-(4-{3-{propyl-(5-pyridin-2-yl-thiophene-2-sulfonyl)-amino}-propyl}-phenoxy)-propionic acid from human PPARgamma

$$$$
CHEMBL3695865
Actelion Java MolfileCreator 2.0

  0  0  0  0  0  0              0 V3000
M  V30 BEGIN CTAB
M  V30 COUNTS 37 41 0 0 0
M  V30 BEGIN ATOM
M  V30 1 Cl 4.3301 0.9999 0.0 0
M  V30 2 C 4.3301 0.0 0.0 0
M  V30 3 C 3.4641 -0.5 0.0 0
M  V30 4 C 5.1961 -0.5 0.0 0
M  V30 5 C 3.4641 -1.5 0.0 0
M  V30 6 C 2.598 0.0 0.0 0 CFG=1
M  V30 7 C 5.1961 -1.5 0.0 0
M  V30 8 Cl 2.598 -1.9999 0.0 0
M  V30 9 C 4.3301 -2.0 0.0 0
M  V30 10 N 1.732 -0.5 0.0 0
M  V30 11 C 2.598 1.0 0.0 0
M  V30 12 C 0.866 0.0 0.0 0
M  V30 13 O 0.866 1.0 0.0 0
M  V30 14 C 0.0 -0.5 0.0 0
M  V30 15 C 0.0 -1.4999 0.0 0
M  V30 16 C -0.866 0.0 0.0 0
M  V30 17 C -0.866 -1.9999 0.0 0
M  V30 18 C -1.732 -0.4999 0.0 0
M  V30 19 C -1.732 -1.4999 0.0 0
M  V30 20 C -1.0739 -2.9781 0.0 0
M  V30 21 N -2.4751 -2.1691 0.0 0
M  V30 22 C -2.0684 -3.0826 0.0 0
M  V30 23 C -0.4048 -3.7212 0.0 0
M  V30 24 C -3.4533 -1.9612 0.0 0
M  V30 25 C -2.5684 -3.9487 0.0 0
M  V30 26 C -4.1224 -2.7043 0.0 0
M  V30 27 C -5.1006 -2.4964 0.0 0
M  V30 28 C -3.8134 -3.6554 0.0 0
M  V30 29 C -5.7697 -3.2395 0.0 0
M  V30 30 C -4.4825 -4.3985 0.0 0
M  V30 31 C -5.4607 -4.1906 0.0 0
M  V30 32 C -6.1298 -4.9337 0.0 0
M  V30 33 C -7.108 -4.7258 0.0 0
M  V30 34 C -5.8208 -5.8848 0.0 0
M  V30 35 C -7.7771 -5.469 0.0 0
M  V30 36 C -6.4899 -6.6279 0.0 0
M  V30 37 C -7.4681 -6.42 0.0 0
M  V30 END ATOM
M  V30 BEGIN BOND
M  V30 1 1 1 2
M  V30 2 2 2 3
M  V30 3 1 2 4
M  V30 4 1 3 5
M  V30 5 1 3 6
M  V30 6 2 4 7
M  V30 7 1 5 8
M  V30 8 2 5 9
M  V30 9 1 6 10
M  V30 10 1 6 11 CFG=1
M  V30 11 1 10 12
M  V30 12 2 12 13
M  V30 13 1 12 14
M  V30 14 2 14 15
M  V30 15 1 14 16
M  V30 16 1 15 17
M  V30 17 2 16 18
M  V30 18 2 17 19
M  V30 19 1 17 20
M  V30 20 1 19 21
M  V30 21 2 20 22
M  V30 22 1 20 23
M  V30 23 1 21 24
M  V30 24 1 22 25
M  V30 25 1 24 26
M  V30 26 2 26 27
M  V30 27 1 26 28
M  V30 28 1 27 29
M  V30 29 2 28 30
M  V30 30 2 29 31
M  V30 31 1 31 32
M  V30 32 2 32 33
M  V30 33 1 32 34
M  V30 34 1 33 35
M  V30 35 2 34 36
M  V30 36 2 35 37
M  V30 37 1 7 9
M  V30 38 1 18 19
M  V30 39 1 21 22
M  V30 40 1 30 31
M  V30 41 1 36 37
M  V30 END BOND
M  V30 BEGIN COLLECTION
M  V30 MDLV30/STEABS ATOMS=(1 6)
M  V30 END COLLECTION
M  V30 END CTAB
M  END
>  <Molecule ChEMBL ID>
CHEMBL3695865

>  <Smiles>
Cc1c(C)n(Cc2ccc(-c3ccccc3)cc2)c2ccc(C(=O)N[C@@H](C)c3c(Cl)cccc3Cl)cc12

>  <IC50_nM>
51

>  <Assay Description>
Lanthascreen Competitive Binding Assay: The assay was performed according to manufacturer protocol. A mixture of nM GST-PPARG-LBD, 5 nM Tb-GST-antibody, 5 nM Fluormone Pan-PPAR Green, and serial dilutions of the experimental compound, beginning at 10 ׬M downwards, was added to wells of black 384-well low-volume plates (Greiner) to a total volume of 18 ׬L. All dilutions were made in TR-FRET assay buffer C. DMSO at 2% final concentration was used as a no-ligand control. Experiment was performed in triplicate, and incubated for 2 hours in the dark prior to assay read in Perkin Elmer ViewLux ultra HTS microplate reader. FRET signal was measured by excitation at 340 nm and emission at 520 nm for fluorescein and 490 nm for terbium. Fold change over DMSO was calculated using GraphPad Prism Software (La Jolla, Calif.) by calculating 520 nm/490 nm ratio. Graphs were plotted as fold change of FRET signal for compound treatment over DMSO-only control.

$$$$
CHEMBL193082
Actelion Java MolfileCreator 2.0

  0  0  0  0  0  0              0 V3000
M  V30 BEGIN CTAB
M  V30 COUNTS 33 35 0 0 0
M  V30 BEGIN ATOM
M  V30 1 O 7.7349 -0.9999 0.0 0
M  V30 2 C 6.7349 -0.9999 0.0 0
M  V30 3 O 6.1472 -0.1909 0.0 0
M  V30 4 N 6.1472 -1.809 0.0 0
M  V30 5 C 5.1961 -0.4999 0.0 0
M  V30 6 C 5.1961 -1.4999 0.0 0
M  V30 7 C 6.4562 -2.76 0.0 0
M  V30 8 C 4.3301 0.0 0.0 0
M  V30 9 C 4.3301 -2.0 0.0 0
M  V30 10 C 5.787 -3.5032 0.0 0
M  V30 11 C 7.4343 -2.9679 0.0 0
M  V30 12 C 3.4641 -0.5 0.0 0
M  V30 13 C 4.4224 1.0977 0.0 0
M  V30 14 C 3.4641 -1.4999 0.0 0
M  V30 15 O 2.598 0.0 0.0 0
M  V30 16 C 5.1961 1.4999 0.0 0
M  V30 17 C 2.598 -1.9999 0.0 0
M  V30 18 C 2.598 1.0 0.0 0 CFG=1
M  V30 19 C 6.0621 1.0 0.0 0
M  V30 20 C 2.598 -2.9999 0.0 0
M  V30 21 C 1.732 1.4999 0.0 0
M  V30 22 C 3.4641 1.5 0.0 0
M  V30 23 C 1.732 -3.4999 0.0 0
M  V30 24 C 1.732 2.4999 0.0 0
M  V30 25 C 0.866 0.9999 0.0 0
M  V30 26 O 4.2408 0.7664 0.0 0
M  V30 27 O 3.4641 2.5 0.0 0
M  V30 28 C 0.866 3.0 0.0 0
M  V30 29 C 0.0 1.4999 0.0 0
M  V30 30 C 0.0 2.5 0.0 0
M  V30 31 C -0.866 2.9999 0.0 0
M  V30 32 C -0.866 4.0 0.0 0
M  V30 33 C -1.732 2.5 0.0 0
M  V30 END ATOM
M  V30 BEGIN BOND
M  V30 1 2 1 2
M  V30 2 1 2 3
M  V30 3 1 2 4
M  V30 4 1 3 5
M  V30 5 1 4 6
M  V30 6 1 4 7
M  V30 7 1 5 8
M  V30 8 1 6 9
M  V30 9 1 7 10
M  V30 10 1 7 11
M  V30 11 2 8 12
M  V30 12 1 8 13
M  V30 13 2 9 14
M  V30 14 1 12 15
M  V30 15 1 13 16
M  V30 16 1 14 17
M  V30 17 1 18 15 CFG=1
M  V30 18 1 16 19
M  V30 19 1 17 20
M  V30 20 1 18 21
M  V30 21 1 18 22
M  V30 22 1 20 23
M  V30 23 2 21 24
M  V30 24 1 21 25
M  V30 25 2 22 26
M  V30 26 1 22 27
M  V30 27 1 24 28
M  V30 28 2 25 29
M  V30 29 2 28 30
M  V30 30 1 30 31
M  V30 31 1 31 32
M  V30 32 1 31 33
M  V30 33 2 5 6
M  V30 34 1 12 14
M  V30 35 1 29 30
M  V30 END BOND
M  V30 BEGIN COLLECTION
M  V30 MDLV30/STEABS ATOMS=(1 18)
M  V30 END COLLECTION
M  V30 END CTAB
M  END
>  <Molecule ChEMBL ID>
CHEMBL193082

>  <Smiles>
CCCc1cc2c(oc(=O)n2C(C)C)c(CCC)c1O[C@H](C(=O)O)c1ccc(C(C)C)cc1

>  <IC50_nM>
51

>  <Assay Description>
In vitro binding affinity for human PPAR gamma

$$$$
CHEMBL309882
Actelion Java MolfileCreator 2.0

  0  0  0  0  0  0              0 V3000
M  V30 BEGIN CTAB
M  V30 COUNTS 34 37 0 0 0
M  V30 BEGIN ATOM
M  V30 1 O 5.1961 -4.5 0.0 0
M  V30 2 C 5.1961 -3.4999 0.0 0
M  V30 3 O 4.3301 -2.9999 0.0 0
M  V30 4 C 6.0621 -3.0 0.0 0 CFG=1
M  V30 5 O 6.9282 -3.5 0.0 0
M  V30 6 C 6.0621 -1.9999 0.0 0
M  V30 7 C 6.0621 -4.0 0.0 0
M  V30 8 C 7.7942 -3.0 0.0 0
M  V30 9 C 5.1961 -1.4999 0.0 0
M  V30 10 C 7.7942 -2.0 0.0 0
M  V30 11 C 8.6602 -3.5 0.0 0
M  V30 12 C 5.1961 -0.5 0.0 0
M  V30 13 C 4.3301 -1.9999 0.0 0
M  V30 14 C 8.6602 -1.5 0.0 0
M  V30 15 C 9.5262 -3.0 0.0 0
M  V30 16 C 4.3301 0.0 0.0 0
M  V30 17 C 3.4641 -1.5 0.0 0
M  V30 18 C 9.5262 -2.0 0.0 0
M  V30 19 C 3.4641 -0.5 0.0 0
M  V30 20 O 2.598 0.0 0.0 0
M  V30 21 C 1.732 -0.5 0.0 0
M  V30 22 C 0.866 0.0 0.0 0
M  V30 23 C 0.0 -0.5 0.0 0
M  V30 24 N -0.9135 -0.0932 0.0 0
M  V30 25 C -0.1045 -1.4945 0.0 0
M  V30 26 C -1.5826 -0.8364 0.0 0
M  V30 27 O -1.0826 -1.7024 0.0 0
M  V30 28 C 0.6386 -2.1636 0.0 0
M  V30 29 C -2.5771 -0.7318 0.0 0
M  V30 30 C -2.9839 0.1816 0.0 0
M  V30 31 C -3.1649 -1.5408 0.0 0
M  V30 32 C -3.9784 0.2861 0.0 0
M  V30 33 C -4.1595 -1.4363 0.0 0
M  V30 34 C -4.5662 -0.5228 0.0 0
M  V30 END ATOM
M  V30 BEGIN BOND
M  V30 1 2 1 2
M  V30 2 1 2 3
M  V30 3 1 2 4
M  V30 4 1 4 5
M  V30 5 1 4 6
M  V30 6 1 4 7 CFG=1
M  V30 7 1 5 8
M  V30 8 1 6 9
M  V30 9 2 8 10
M  V30 10 1 8 11
M  V30 11 2 9 12
M  V30 12 1 9 13
M  V30 13 1 10 14
M  V30 14 2 11 15
M  V30 15 1 12 16
M  V30 16 2 13 17
M  V30 17 2 14 18
M  V30 18 2 16 19
M  V30 19 1 19 20
M  V30 20 1 20 21
M  V30 21 1 21 22
M  V30 22 1 22 23
M  V30 23 1 23 24
M  V30 24 2 23 25
M  V30 25 2 24 26
M  V30 26 1 25 27
M  V30 27 1 25 28
M  V30 28 1 26 29
M  V30 29 1 29 30
M  V30 30 1 29 31
M  V30 31 1 30 32
M  V30 32 1 31 33
M  V30 33 1 32 34
M  V30 34 1 15 18
M  V30 35 1 17 19
M  V30 36 1 26 27
M  V30 37 1 33 34
M  V30 END BOND
M  V30 BEGIN COLLECTION
M  V30 MDLV30/STERAC1 ATOMS=(1 4)
M  V30 END COLLECTION
M  V30 END CTAB
M  END
>  <Molecule ChEMBL ID>
CHEMBL309882

>  <Smiles>
Cc1oc(C2CCCCC2)nc1CCOc1ccc(CC(C)(Oc2ccccc2)C(=O)O)cc1

>  <IC50_nM>
51

>  <Assay Description>
Displacement of PPARgamma agonist from human PPAR gamma receptor

$$$$
CHEMBL5174641
Actelion Java MolfileCreator 2.0

  0  0  0  0  0  0              0 V3000
M  V30 BEGIN CTAB
M  V30 COUNTS 29 32 0 0 0
M  V30 BEGIN ATOM
M  V30 1 Cl 1.732 1.4999 0.0 0
M  V30 2 C 2.598 1.0 0.0 0
M  V30 3 C 2.598 0.0 0.0 0
M  V30 4 C 3.4641 1.4999 0.0 0
M  V30 5 C 1.732 -0.5 0.0 0
M  V30 6 C 3.4641 -0.5 0.0 0
M  V30 7 C 4.3301 1.0 0.0 0
M  V30 8 O 1.732 -1.5 0.0 0
M  V30 9 N 0.866 0.0 0.0 0
M  V30 10 C 4.3301 0.0 0.0 0
M  V30 11 C 0.0 -0.5 0.0 0
M  V30 12 N 5.1961 -0.5 0.0 0 CHG=1
M  V30 13 C -0.866 0.0 0.0 0
M  V30 14 C 0.0 -1.5 0.0 0
M  V30 15 O 5.1961 -1.5 0.0 0
M  V30 16 O 6.0621 0.0 0.0 0 CHG=-1
M  V30 17 C -1.732 -0.4999 0.0 0
M  V30 18 C -0.866 -1.9999 0.0 0
M  V30 19 N -2.6831 -0.1909 0.0 0
M  V30 20 C -1.732 -1.4999 0.0 0
M  V30 21 C -3.2708 -0.9999 0.0 0
M  V30 22 O -2.6831 -1.809 0.0 0
M  V30 23 C -4.2708 -0.9999 0.0 0
M  V30 24 C -4.7708 -0.1339 0.0 0
M  V30 25 C -4.7708 -1.866 0.0 0
M  V30 26 C -5.7708 -0.1339 0.0 0
M  V30 27 C -5.7708 -1.866 0.0 0
M  V30 28 Cl -6.2708 0.732 0.0 0
M  V30 29 C -6.2708 -0.9999 0.0 0
M  V30 END ATOM
M  V30 BEGIN BOND
M  V30 1 1 1 2
M  V30 2 2 2 3
M  V30 3 1 2 4
M  V30 4 1 3 5
M  V30 5 1 3 6
M  V30 6 2 4 7
M  V30 7 2 5 8
M  V30 8 1 5 9
M  V30 9 2 6 10
M  V30 10 1 9 11
M  V30 11 1 10 12
M  V30 12 2 11 13
M  V30 13 1 11 14
M  V30 14 2 12 15
M  V30 15 1 12 16
M  V30 16 1 13 17
M  V30 17 2 14 18
M  V30 18 1 17 19
M  V30 19 2 17 20
M  V30 20 2 19 21
M  V30 21 1 20 22
M  V30 22 1 21 23
M  V30 23 2 23 24
M  V30 24 1 23 25
M  V30 25 1 24 26
M  V30 26 2 25 27
M  V30 27 1 26 28
M  V30 28 2 26 29
M  V30 29 1 7 10
M  V30 30 1 18 20
M  V30 31 1 21 22
M  V30 32 1 27 29
M  V30 END BOND
M  V30 END CTAB
M  END
>  <Molecule ChEMBL ID>
CHEMBL5174641

>  <Smiles>
O=C(Nc1ccc2oc(-c3cccc(Cl)c3)nc2c1)c1cc([N+](=O)[O-])ccc1Cl

>  <IC50_nM>
52

>  <Assay Description>
Inverse agonist activity at PPARgamma in human RT112/84-FABP4 cells assessed as reduction in PPARgamma transactivation measured by Nanoluciferase reporter gene assay

$$$$
CHEMBL3699374
Actelion Java MolfileCreator 2.0

  0  0  0  0  0  0              0 V3000
M  V30 BEGIN CTAB
M  V30 COUNTS 40 44 0 0 0
M  V30 BEGIN ATOM
M  V30 1 F 4.3301 -2.9999 0.0 0
M  V30 2 C 4.3301 -1.9999 0.0 0
M  V30 3 C 5.1961 -1.5 0.0 0
M  V30 4 C 3.4641 -1.5 0.0 0
M  V30 5 C 5.1961 -0.5 0.0 0
M  V30 6 C 6.0621 -2.0 0.0 0
M  V30 7 C 3.4641 -0.5 0.0 0
M  V30 8 C 4.3301 0.0 0.0 0
M  V30 9 F 6.5621 -1.1339 0.0 0
M  V30 10 F 6.9282 -2.5 0.0 0
M  V30 11 F 5.5621 -2.866 0.0 0
M  V30 12 C 2.598 0.0 0.0 0 CFG=1
M  V30 13 N 1.732 -0.5 0.0 0
M  V30 14 C 2.598 1.0 0.0 0
M  V30 15 C 0.866 0.0 0.0 0
M  V30 16 O 0.866 1.0 0.0 0
M  V30 17 C 0.0 -0.5 0.0 0
M  V30 18 C 0.0 -1.4999 0.0 0
M  V30 19 C -0.866 0.0 0.0 0
M  V30 20 C -0.866 -1.9999 0.0 0
M  V30 21 C -1.732 -0.4999 0.0 0
M  V30 22 C -1.732 -1.4999 0.0 0
M  V30 23 C -1.0739 -2.9781 0.0 0
M  V30 24 N -2.4751 -2.1691 0.0 0
M  V30 25 C -2.0684 -3.0826 0.0 0
M  V30 26 C -0.4048 -3.7212 0.0 0
M  V30 27 C -3.4533 -1.9612 0.0 0
M  V30 28 C -2.5684 -3.9487 0.0 0
M  V30 29 C -4.1224 -2.7043 0.0 0
M  V30 30 C -5.1006 -2.4964 0.0 0
M  V30 31 C -3.8134 -3.6554 0.0 0
M  V30 32 C -5.7697 -3.2395 0.0 0
M  V30 33 C -4.4825 -4.3985 0.0 0
M  V30 34 C -5.4607 -4.1906 0.0 0
M  V30 35 C -6.1298 -4.9337 0.0 0
M  V30 36 C -7.108 -4.7258 0.0 0
M  V30 37 C -5.8208 -5.8848 0.0 0
M  V30 38 C -7.7771 -5.469 0.0 0
M  V30 39 C -6.4899 -6.6279 0.0 0
M  V30 40 C -7.4681 -6.42 0.0 0
M  V30 END ATOM
M  V30 BEGIN BOND
M  V30 1 1 1 2
M  V30 2 2 2 3
M  V30 3 1 2 4
M  V30 4 1 3 5
M  V30 5 1 3 6
M  V30 6 2 4 7
M  V30 7 2 5 8
M  V30 8 1 6 9
M  V30 9 1 6 10
M  V30 10 1 6 11
M  V30 11 1 7 12
M  V30 12 1 12 13
M  V30 13 1 12 14 CFG=1
M  V30 14 1 13 15
M  V30 15 2 15 16
M  V30 16 1 15 17
M  V30 17 2 17 18
M  V30 18 1 17 19
M  V30 19 1 18 20
M  V30 20 2 19 21
M  V30 21 2 20 22
M  V30 22 1 20 23
M  V30 23 1 22 24
M  V30 24 2 23 25
M  V30 25 1 23 26
M  V30 26 1 24 27
M  V30 27 1 25 28
M  V30 28 1 27 29
M  V30 29 2 29 30
M  V30 30 1 29 31
M  V30 31 1 30 32
M  V30 32 2 31 33
M  V30 33 2 32 34
M  V30 34 1 34 35
M  V30 35 2 35 36
M  V30 36 1 35 37
M  V30 37 1 36 38
M  V30 38 2 37 39
M  V30 39 2 38 40
M  V30 40 1 7 8
M  V30 41 1 21 22
M  V30 42 1 24 25
M  V30 43 1 33 34
M  V30 44 1 39 40
M  V30 END BOND
M  V30 BEGIN COLLECTION
M  V30 MDLV30/STEABS ATOMS=(1 12)
M  V30 END COLLECTION
M  V30 END CTAB
M  END
>  <Molecule ChEMBL ID>
CHEMBL3699374

>  <Smiles>
Cc1c(C)n(Cc2ccc(-c3ccccc3)cc2)c2ccc(C(=O)N[C@@H](C)c3ccc(C(F)(F)F)c(F)c3)cc12

>  <IC50_nM>
53

>  <Assay Description>
Lanthascreen Competitive Binding Assay: The assay was performed according to manufacturer protocol. A mixture of nM GST-PPARG-LBD, 5 nM Tb-GST-antibody, 5 nM Fluormone Pan-PPAR Green, and serial dilutions of the experimental compound, beginning at 10 ׬M downwards, was added to wells of black 384-well low-volume plates (Greiner) to a total volume of 18 ׬L. All dilutions were made in TR-FRET assay buffer C. DMSO at 2% final concentration was used as a no-ligand control. Experiment was performed in triplicate, and incubated for 2 hours in the dark prior to assay read in Perkin Elmer ViewLux ultra HTS microplate reader. FRET signal was measured by excitation at 340 nm and emission at 520 nm for fluorescein and 490 nm for terbium. Fold change over DMSO was calculated using GraphPad Prism Software (La Jolla, Calif.) by calculating 520 nm/490 nm ratio. Graphs were plotted as fold change of FRET signal for compound treatment over DMSO-only control.

$$$$
CHEMBL3695784
Actelion Java MolfileCreator 2.0

  0  0  0  0  0  0              0 V3000
M  V30 BEGIN CTAB
M  V30 COUNTS 39 43 0 0 0
M  V30 BEGIN ATOM
M  V30 1 Cl 6.0621 -1.9999 0.0 0
M  V30 2 C 5.1961 -1.4999 0.0 0
M  V30 3 C 5.1961 -0.5 0.0 0
M  V30 4 C 4.3301 -1.9999 0.0 0
M  V30 5 C 4.3301 0.0 0.0 0
M  V30 6 C 3.4641 -1.5 0.0 0
M  V30 7 C 3.4641 -0.5 0.0 0
M  V30 8 C 2.598 0.0 0.0 0 CFG=1
M  V30 9 N 1.732 -0.5 0.0 0
M  V30 10 C 2.598 1.0 0.0 0
M  V30 11 C 0.866 0.0 0.0 0
M  V30 12 O 0.866 1.0 0.0 0
M  V30 13 C 0.0 -0.5 0.0 0
M  V30 14 C 0.0 -1.4999 0.0 0
M  V30 15 C -0.866 0.0 0.0 0
M  V30 16 C -0.866 -1.9999 0.0 0
M  V30 17 C -1.732 -0.4999 0.0 0
M  V30 18 C -1.732 -1.4999 0.0 0
M  V30 19 C -1.0739 -2.9781 0.0 0
M  V30 20 N -2.4751 -2.1691 0.0 0
M  V30 21 C -2.0684 -3.0826 0.0 0
M  V30 22 C -0.4048 -3.7212 0.0 0
M  V30 23 C -3.4533 -1.9612 0.0 0
M  V30 24 C -2.5684 -3.9487 0.0 0
M  V30 25 C -4.1224 -2.7043 0.0 0
M  V30 26 C -5.1006 -2.4964 0.0 0
M  V30 27 C -3.8134 -3.6554 0.0 0
M  V30 28 C -5.7697 -3.2395 0.0 0
M  V30 29 C -4.4825 -4.3985 0.0 0
M  V30 30 C -5.4607 -4.1906 0.0 0
M  V30 31 C -6.1298 -4.9337 0.0 0
M  V30 32 C -7.108 -4.7258 0.0 0
M  V30 33 C -5.8208 -5.8848 0.0 0
M  V30 34 C -7.417 -3.7748 0.0 0
M  V30 35 C -7.7771 -5.469 0.0 0
M  V30 36 C -6.4899 -6.6279 0.0 0
M  V30 37 O -6.7478 -3.0316 0.0 0
M  V30 38 O -8.3951 -3.5669 0.0 0
M  V30 39 C -7.4681 -6.42 0.0 0
M  V30 END ATOM
M  V30 BEGIN BOND
M  V30 1 1 1 2
M  V30 2 2 2 3
M  V30 3 1 2 4
M  V30 4 1 3 5
M  V30 5 2 4 6
M  V30 6 2 5 7
M  V30 7 1 7 8
M  V30 8 1 8 9
M  V30 9 1 8 10 CFG=1
M  V30 10 1 9 11
M  V30 11 2 11 12
M  V30 12 1 11 13
M  V30 13 2 13 14
M  V30 14 1 13 15
M  V30 15 1 14 16
M  V30 16 2 15 17
M  V30 17 2 16 18
M  V30 18 1 16 19
M  V30 19 1 18 20
M  V30 20 2 19 21
M  V30 21 1 19 22
M  V30 22 1 20 23
M  V30 23 1 21 24
M  V30 24 1 23 25
M  V30 25 2 25 26
M  V30 26 1 25 27
M  V30 27 1 26 28
M  V30 28 2 27 29
M  V30 29 2 28 30
M  V30 30 1 30 31
M  V30 31 2 31 32
M  V30 32 1 31 33
M  V30 33 1 32 34
M  V30 34 1 32 35
M  V30 35 2 33 36
M  V30 36 2 34 37
M  V30 37 1 34 38
M  V30 38 2 35 39
M  V30 39 1 6 7
M  V30 40 1 17 18
M  V30 41 1 20 21
M  V30 42 1 29 30
M  V30 43 1 36 39
M  V30 END BOND
M  V30 BEGIN COLLECTION
M  V30 MDLV30/STEABS ATOMS=(1 8)
M  V30 END COLLECTION
M  V30 END CTAB
M  END
>  <Molecule ChEMBL ID>
CHEMBL3695784

>  <Smiles>
Cc1c(C)n(Cc2ccc(-c3ccccc3C(=O)O)cc2)c2ccc(C(=O)N[C@@H](C)c3ccc(Cl)cc3)cc12

>  <IC50_nM>
53

>  <Assay Description>
Lanthascreen Competitive Binding Assay: The assay was performed according to manufacturer protocol. A mixture of nM GST-PPARG-LBD, 5 nM Tb-GST-antibody, 5 nM Fluormone Pan-PPAR Green, and serial dilutions of the experimental compound, beginning at 10 ׬M downwards, was added to wells of black 384-well low-volume plates (Greiner) to a total volume of 18 ׬L. All dilutions were made in TR-FRET assay buffer C. DMSO at 2% final concentration was used as a no-ligand control. Experiment was performed in triplicate, and incubated for 2 hours in the dark prior to assay read in Perkin Elmer ViewLux ultra HTS microplate reader. FRET signal was measured by excitation at 340 nm and emission at 520 nm for fluorescein and 490 nm for terbium. Fold change over DMSO was calculated using GraphPad Prism Software (La Jolla, Calif.) by calculating 520 nm/490 nm ratio. Graphs were plotted as fold change of FRET signal for compound treatment over DMSO-only control.

$$$$
CHEMBL509369
Actelion Java MolfileCreator 2.0

  0  0  0  0  0  0              0 V3000
M  V30 BEGIN CTAB
M  V30 COUNTS 32 35 0 0 0
M  V30 BEGIN ATOM
M  V30 1 Cl -0.74 -0.0776 0.0 0
M  V30 2 C -0.3333 -0.9912 0.0 0
M  V30 3 C -0.921 -1.8002 0.0 0
M  V30 4 C 0.6612 -1.0957 0.0 0
M  V30 5 C -0.5143 -2.7138 0.0 0
M  V30 6 C 1.0679 -2.0093 0.0 0
M  V30 7 C 0.4801 -2.8183 0.0 0
M  V30 8 O 0.8869 -3.7318 0.0 0
M  V30 9 C 1.8814 -3.8364 0.0 0
M  V30 10 C 2.3814 -4.7024 0.0 0
M  V30 11 C 2.5505 -3.0932 0.0 0
M  V30 12 C 3.3595 -4.4945 0.0 0
M  V30 13 C 2.0724 -5.6534 0.0 0
M  V30 14 N 3.4641 -3.5 0.0 0
M  V30 15 C 2.3426 -2.1151 0.0 0
M  V30 16 N 4.0287 -5.2376 0.0 0
M  V30 17 C 2.7415 -6.3966 0.0 0
M  V30 18 C 4.3301 -3.0 0.0 0
M  V30 19 C 3.7196 -6.1887 0.0 0
M  V30 20 C 4.3301 -1.9999 0.0 0
M  V30 21 C 5.1961 -1.5 0.0 0
M  V30 22 C 3.4641 -1.5 0.0 0
M  V30 23 F 6.0621 -2.0 0.0 0
M  V30 24 C 5.1961 -0.5 0.0 0
M  V30 25 C 3.4641 -0.5 0.0 0
M  V30 26 C 4.3301 0.0 0.0 0
M  V30 27 O 2.598 0.0 0.0 0
M  V30 28 C 2.598 0.9999 0.0 0 CFG=2
M  V30 29 C 1.732 1.4999 0.0 0
M  V30 30 C 3.4641 1.4999 0.0 0
M  V30 31 O 0.866 0.9999 0.0 0
M  V30 32 O 1.732 2.4999 0.0 0
M  V30 END ATOM
M  V30 BEGIN BOND
M  V30 1 1 1 2
M  V30 2 2 2 3
M  V30 3 1 2 4
M  V30 4 1 3 5
M  V30 5 2 4 6
M  V30 6 2 5 7
M  V30 7 1 7 8
M  V30 8 1 8 9
M  V30 9 1 9 10
M  V30 10 2 9 11
M  V30 11 2 10 12
M  V30 12 1 10 13
M  V30 13 1 11 14
M  V30 14 1 11 15
M  V30 15 1 12 16
M  V30 16 2 13 17
M  V30 17 1 14 18
M  V30 18 2 16 19
M  V30 19 1 18 20
M  V30 20 2 20 21
M  V30 21 1 20 22
M  V30 22 1 21 23
M  V30 23 1 21 24
M  V30 24 2 22 25
M  V30 25 2 24 26
M  V30 26 1 25 27
M  V30 27 1 27 28
M  V30 28 1 28 29
M  V30 29 1 28 30 CFG=3
M  V30 30 2 29 31
M  V30 31 1 29 32
M  V30 32 1 6 7
M  V30 33 1 12 14
M  V30 34 1 17 19
M  V30 35 1 25 26
M  V30 END BOND
M  V30 BEGIN COLLECTION
M  V30 MDLV30/STEABS ATOMS=(1 28)
M  V30 END COLLECTION
M  V30 END CTAB
M  END
>  <Molecule ChEMBL ID>
CHEMBL509369

>  <Smiles>
Cc1c(Oc2ccc(Cl)cc2)c2cccnc2n1Cc1cc(O[C@@H](C)C(=O)O)ccc1F

>  <IC50_nM>
54

>  <Assay Description>
Displacement of [3H]2AD-5075 from GST-tagged human PPARgamma receptor expressed in Escherichia coli BL21

$$$$
CHEMBL5291018
Actelion Java MolfileCreator 2.0

  0  0  0  0  0  0              0 V3000
M  V30 BEGIN CTAB
M  V30 COUNTS 29 31 0 0 0
M  V30 BEGIN ATOM
M  V30 1 Cl 6.0621 -1.9999 0.0 0
M  V30 2 C 5.1961 -1.4999 0.0 0
M  V30 3 C 5.1961 -0.5 0.0 0
M  V30 4 C 4.3301 -1.9999 0.0 0
M  V30 5 C 6.0621 0.0 0.0 0
M  V30 6 C 4.3301 0.0 0.0 0
M  V30 7 C 3.4641 -1.5 0.0 0
M  V30 8 O 6.0621 0.9999 0.0 0
M  V30 9 N 6.9282 -0.5 0.0 0
M  V30 10 C 3.4641 -0.5 0.0 0
M  V30 11 F 2.598 -2.0 0.0 0
M  V30 12 C 7.7942 0.0 0.0 0
M  V30 13 C 2.598 0.0 0.0 0
M  V30 14 N 8.6602 -0.5 0.0 0
M  V30 15 C 7.7942 0.9999 0.0 0
M  V30 16 O 2.598 1.0 0.0 0
M  V30 17 N 1.732 -0.5 0.0 0
M  V30 18 C 9.5262 0.0 0.0 0
M  V30 19 C 8.6602 1.4999 0.0 0
M  V30 20 C 0.866 0.0 0.0 0
M  V30 21 C 9.5262 0.9999 0.0 0
M  V30 22 C 0.0 -0.5 0.0 0
M  V30 23 C -0.866 0.0 0.0 0
M  V30 24 C 0.0 -1.4999 0.0 0
M  V30 25 C -1.732 -0.4999 0.0 0
M  V30 26 C -0.866 -1.9999 0.0 0
M  V30 27 F -2.598 0.0 0.0 0
M  V30 28 C -1.732 -1.4999 0.0 0
M  V30 29 F -2.598 -1.9999 0.0 0
M  V30 END ATOM
M  V30 BEGIN BOND
M  V30 1 1 1 2
M  V30 2 2 2 3
M  V30 3 1 2 4
M  V30 4 1 3 5
M  V30 5 1 3 6
M  V30 6 2 4 7
M  V30 7 2 5 8
M  V30 8 1 5 9
M  V30 9 2 6 10
M  V30 10 1 7 11
M  V30 11 1 9 12
M  V30 12 1 10 13
M  V30 13 2 12 14
M  V30 14 1 12 15
M  V30 15 2 13 16
M  V30 16 1 13 17
M  V30 17 1 14 18
M  V30 18 2 15 19
M  V30 19 1 17 20
M  V30 20 2 18 21
M  V30 21 1 20 22
M  V30 22 2 22 23
M  V30 23 1 22 24
M  V30 24 1 23 25
M  V30 25 2 24 26
M  V30 26 1 25 27
M  V30 27 2 25 28
M  V30 28 1 28 29
M  V30 29 1 7 10
M  V30 30 1 19 21
M  V30 31 1 26 28
M  V30 END BOND
M  V30 END CTAB
M  END
>  <Molecule ChEMBL ID>
CHEMBL5291018

>  <Smiles>
O=C(NCc1ccc(F)c(F)c1)c1cc(C(=O)Nc2ccccn2)c(Cl)cc1F

>  <IC50_nM>
54

>  <Assay Description>
Inverse agonist activity at human PPARgamma in human RT112/84 transfected with NLuc-fused FABP4 assessed as reduction in PPARgamma transactivation incubated for 6 to 18 hrs by Nano-Glo luciferase assay

$$$$
CHEMBL3678111
Actelion Java MolfileCreator 2.0

  0  0  0  0  0  0              0 V3000
M  V30 BEGIN CTAB
M  V30 COUNTS 37 41 0 0 0
M  V30 BEGIN ATOM
M  V30 1 O 16.6278 2.2222 0.0 0
M  V30 2 C 16.1642 0.7957 0.0 0
M  V30 3 N 17.1679 -0.319 0.0 0
M  V30 4 C 14.697 0.4838 0.0 0
M  V30 5 C 16.7044 -1.7455 0.0 0 CFG=2
M  V30 6 C 14.2335 -0.9427 0.0 0
M  V30 7 C 13.6933 1.5985 0.0 0
M  V30 8 C 17.7081 -2.8603 0.0 0
M  V30 9 C 15.2372 -2.0574 0.0 0
M  V30 10 C 12.7663 -1.2546 0.0 0
M  V30 11 C 12.2261 1.2866 0.0 0
M  V30 12 C 19.1753 -2.5484 0.0 0
M  V30 13 C 17.2446 -4.2868 0.0 0
M  V30 14 C 11.7626 -0.1398 0.0 0
M  V30 15 C 12.0163 -2.5536 0.0 0
M  V30 16 C 20.179 -3.6631 0.0 0
M  V30 17 C 18.2483 -5.4016 0.0 0
M  V30 18 N 10.3923 -0.75 0.0 0
M  V30 19 C 10.549 -2.2417 0.0 0
M  V30 20 C 12.6264 -3.9239 0.0 0
M  V30 21 C 19.7155 -5.0897 0.0 0
M  V30 22 C 21.6462 -3.3512 0.0 0
M  V30 23 C 9.0932 0.0 0.0 0
M  V30 24 C 9.4343 -3.2454 0.0 0
M  V30 25 C 22.761 -2.3475 0.0 0
M  V30 26 C 23.0728 -3.8148 0.0 0
M  V30 27 C 7.7942 -0.75 0.0 0
M  V30 28 C 6.4951 0.0 0.0 0
M  V30 29 C 7.7942 -2.25 0.0 0
M  V30 30 C 5.1961 -0.75 0.0 0
M  V30 31 C 6.4951 -3.0 0.0 0
M  V30 32 O 3.8971 0.0 0.0 0
M  V30 33 C 5.1961 -2.25 0.0 0
M  V30 34 C 2.598 -0.75 0.0 0
M  V30 35 C 1.299 0.0 0.0 0
M  V30 36 O 1.299 1.5 0.0 0
M  V30 37 O 0.0 -0.75 0.0 0
M  V30 END ATOM
M  V30 BEGIN BOND
M  V30 1 2 1 2
M  V30 2 1 2 3
M  V30 3 1 2 4
M  V30 4 1 3 5
M  V30 5 2 4 6
M  V30 6 1 4 7
M  V30 7 1 5 8
M  V30 8 1 5 9 CFG=3
M  V30 9 1 6 10
M  V30 10 2 7 11
M  V30 11 2 8 12
M  V30 12 1 8 13
M  V30 13 2 10 14
M  V30 14 1 10 15
M  V30 15 1 12 16
M  V30 16 2 13 17
M  V30 17 1 14 18
M  V30 18 2 15 19
M  V30 19 1 15 20
M  V30 20 2 16 21
M  V30 21 1 16 22
M  V30 22 1 18 23
M  V30 23 1 19 24
M  V30 24 1 22 25
M  V30 25 1 22 26
M  V30 26 1 23 27
M  V30 27 2 27 28
M  V30 28 1 27 29
M  V30 29 1 28 30
M  V30 30 2 29 31
M  V30 31 1 30 32
M  V30 32 2 30 33
M  V30 33 1 32 34
M  V30 34 1 34 35
M  V30 35 2 35 36
M  V30 36 1 35 37
M  V30 37 1 11 14
M  V30 38 1 17 21
M  V30 39 1 18 19
M  V30 40 1 25 26
M  V30 41 1 31 33
M  V30 END BOND
M  V30 BEGIN COLLECTION
M  V30 MDLV30/STEABS ATOMS=(1 5)
M  V30 END COLLECTION
M  V30 END CTAB
M  END
>  <Molecule ChEMBL ID>
CHEMBL3678111

>  <Smiles>
Cc1c(C)n(Cc2cccc(OCC(=O)O)c2)c2ccc(C(=O)N[C@@H](C)c3cccc(C4CC4)c3)cc12

>  <IC50_nM>
56

>  <Assay Description>
Lanthascreen Competitive Binding Assay: The assay was performed according to manufacturer protocol. A mixture of 5 nM GST-PPARG-LBD, 5 nM Tb-GST-antibody, 5 nM Fluormone Pan- PPAR Green, and serial dilutions of the experimental compound, beginning at 10 ׬� downwards, was added to wells of black 384-well low- volume plates (Greiner) to a total volume of 18 xL. All dilutions were made in TR-FRET assay buffer C. DMSO at 2% final concentration was used as a no-ligand control. Experiment was performed in triplicate, and incubated for 2 hours in the dark prior to assay read in Perkin Elmer ViewLux ultra HTS microplate reader. FRET signal was measured by excitation at 340 nm and emission at 520 nm for fluorescein and 490 nm for terbium.

$$$$
CHEMBL328615
Actelion Java MolfileCreator 2.0

  0  0  0  0  0  0              0 V3000
M  V30 BEGIN CTAB
M  V30 COUNTS 36 39 0 0 0
M  V30 BEGIN ATOM
M  V30 1 Cl 7.7942 -6.0 0.0 0
M  V30 2 C 7.7942 -5.0 0.0 0
M  V30 3 C 8.6602 -4.5 0.0 0
M  V30 4 C 6.9282 -4.5 0.0 0
M  V30 5 C 8.6602 -3.5 0.0 0
M  V30 6 C 9.5262 -5.0 0.0 0
M  V30 7 C 6.9282 -3.5 0.0 0
M  V30 8 C 7.7942 -3.0 0.0 0
M  V30 9 O 7.7942 -2.0 0.0 0
M  V30 10 C 6.9282 -1.5 0.0 0
M  V30 11 C 6.9282 -0.5 0.0 0
M  V30 12 C 6.0621 -2.0 0.0 0
M  V30 13 C 6.0621 0.0 0.0 0
M  V30 14 C 5.1961 -1.5 0.0 0
M  V30 15 C 5.1961 -0.5 0.0 0
M  V30 16 C 6.0621 0.9999 0.0 0
M  V30 17 O 4.3301 0.0 0.0 0
M  V30 18 C 6.9282 1.4999 0.0 0
M  V30 19 C 3.4641 -0.5 0.0 0
M  V30 20 C 6.9282 2.4999 0.0 0
M  V30 21 C 2.598 0.0 0.0 0
M  V30 22 C 1.732 -0.5 0.0 0
M  V30 23 O 0.866 0.0 0.0 0
M  V30 24 C 0.0 -0.5 0.0 0
M  V30 25 C -0.866 0.0 0.0 0
M  V30 26 C 0.0 -1.4999 0.0 0
M  V30 27 C -1.732 -0.4999 0.0 0
M  V30 28 C -0.866 -1.9999 0.0 0
M  V30 29 C -1.732 -1.4999 0.0 0
M  V30 30 C -2.598 0.0 0.0 0 CFG=1
M  V30 31 S -2.7026 0.9945 0.0 0
M  V30 32 C -3.5116 -0.4067 0.0 0
M  V30 33 C -3.6807 1.2024 0.0 0
M  V30 34 O -3.7195 -1.3848 0.0 0
M  V30 35 N -4.1807 0.3364 0.0 0
M  V30 36 O -4.0874 2.1159 0.0 0
M  V30 END ATOM
M  V30 BEGIN BOND
M  V30 1 1 1 2
M  V30 2 2 2 3
M  V30 3 1 2 4
M  V30 4 1 3 5
M  V30 5 1 3 6
M  V30 6 2 4 7
M  V30 7 2 5 8
M  V30 8 1 8 9
M  V30 9 1 9 10
M  V30 10 2 10 11
M  V30 11 1 10 12
M  V30 12 1 11 13
M  V30 13 2 12 14
M  V30 14 2 13 15
M  V30 15 1 13 16
M  V30 16 1 15 17
M  V30 17 1 16 18
M  V30 18 1 17 19
M  V30 19 1 18 20
M  V30 20 1 19 21
M  V30 21 1 21 22
M  V30 22 1 22 23
M  V30 23 1 23 24
M  V30 24 2 24 25
M  V30 25 1 24 26
M  V30 26 1 25 27
M  V30 27 2 26 28
M  V30 28 2 27 29
M  V30 29 1 30 27 CFG=3
M  V30 30 1 30 31
M  V30 31 1 30 32
M  V30 32 1 31 33
M  V30 33 2 32 34
M  V30 34 1 32 35
M  V30 35 2 33 36
M  V30 36 1 7 8
M  V30 37 1 14 15
M  V30 38 1 28 29
M  V30 39 1 33 35
M  V30 END BOND
M  V30 BEGIN COLLECTION
M  V30 MDLV30/STERAC1 ATOMS=(1 30)
M  V30 END COLLECTION
M  V30 END CTAB
M  END
>  <Molecule ChEMBL ID>
CHEMBL328615

>  <Smiles>
CCCc1cc(Oc2ccc(Cl)c(C)c2)ccc1OCCCOc1cccc(C2SC(=O)NC2=O)c1

>  <IC50_nM>
56

>  <Assay Description>
In vitro binding affinity against human peroxisome proliferator activated receptor gamma

$$$$
CHEMBL1783055
Actelion Java MolfileCreator 2.0

  0  0  0  0  0  0              0 V3000
M  V30 BEGIN CTAB
M  V30 COUNTS 36 39 0 0 0
M  V30 BEGIN ATOM
M  V30 1 Cl 7.7942 -6.0 0.0 0
M  V30 2 C 7.7942 -5.0 0.0 0
M  V30 3 C 8.6602 -4.5 0.0 0
M  V30 4 C 6.9282 -4.5 0.0 0
M  V30 5 C 8.6602 -3.5 0.0 0
M  V30 6 C 9.5262 -5.0 0.0 0
M  V30 7 C 6.9282 -3.5 0.0 0
M  V30 8 C 7.7942 -3.0 0.0 0
M  V30 9 O 7.7942 -2.0 0.0 0
M  V30 10 C 6.9282 -1.5 0.0 0
M  V30 11 C 6.9282 -0.5 0.0 0
M  V30 12 C 6.0621 -2.0 0.0 0
M  V30 13 C 6.0621 0.0 0.0 0
M  V30 14 C 5.1961 -1.5 0.0 0
M  V30 15 C 5.1961 -0.5 0.0 0
M  V30 16 C 6.0621 0.9999 0.0 0
M  V30 17 O 4.3301 0.0 0.0 0
M  V30 18 C 6.9282 1.4999 0.0 0
M  V30 19 C 3.4641 -0.5 0.0 0
M  V30 20 C 6.9282 2.4999 0.0 0
M  V30 21 C 2.598 0.0 0.0 0
M  V30 22 C 1.732 -0.5 0.0 0
M  V30 23 O 0.866 0.0 0.0 0
M  V30 24 C 0.0 -0.5 0.0 0
M  V30 25 C -0.866 0.0 0.0 0
M  V30 26 C 0.0 -1.4999 0.0 0
M  V30 27 C -1.732 -0.4999 0.0 0
M  V30 28 C -0.866 -1.9999 0.0 0
M  V30 29 C -1.732 -1.4999 0.0 0
M  V30 30 C -2.598 0.0 0.0 0 CFG=2
M  V30 31 S -2.7026 0.9945 0.0 0
M  V30 32 C -3.5116 -0.4067 0.0 0
M  V30 33 C -3.6807 1.2024 0.0 0
M  V30 34 O -3.7195 -1.3848 0.0 0
M  V30 35 N -4.1807 0.3364 0.0 0
M  V30 36 O -4.0874 2.1159 0.0 0
M  V30 END ATOM
M  V30 BEGIN BOND
M  V30 1 1 1 2
M  V30 2 2 2 3
M  V30 3 1 2 4
M  V30 4 1 3 5
M  V30 5 1 3 6
M  V30 6 2 4 7
M  V30 7 2 5 8
M  V30 8 1 8 9
M  V30 9 1 9 10
M  V30 10 2 10 11
M  V30 11 1 10 12
M  V30 12 1 11 13
M  V30 13 2 12 14
M  V30 14 2 13 15
M  V30 15 1 13 16
M  V30 16 1 15 17
M  V30 17 1 16 18
M  V30 18 1 17 19
M  V30 19 1 18 20
M  V30 20 1 19 21
M  V30 21 1 21 22
M  V30 22 1 22 23
M  V30 23 1 23 24
M  V30 24 2 24 25
M  V30 25 1 24 26
M  V30 26 1 25 27
M  V30 27 2 26 28
M  V30 28 2 27 29
M  V30 29 1 30 27 CFG=1
M  V30 30 1 30 31
M  V30 31 1 30 32
M  V30 32 1 31 33
M  V30 33 2 32 34
M  V30 34 1 32 35
M  V30 35 2 33 36
M  V30 36 1 7 8
M  V30 37 1 14 15
M  V30 38 1 28 29
M  V30 39 1 33 35
M  V30 END BOND
M  V30 BEGIN COLLECTION
M  V30 MDLV30/STEABS ATOMS=(1 30)
M  V30 END COLLECTION
M  V30 END CTAB
M  END
>  <Molecule ChEMBL ID>
CHEMBL1783055

>  <Smiles>
CCCc1cc(Oc2ccc(Cl)c(C)c2)ccc1OCCCOc1cccc([C@@H]2SC(=O)NC2=O)c1

>  <IC50_nM>
56

>  <Assay Description>
Displacement of radio-labeled full agonist from PPARgamma receptor

$$$$
CHEMBL94306
Actelion Java MolfileCreator 2.0

  0  0  0  0  0  0              0 V3000
M  V30 BEGIN CTAB
M  V30 COUNTS 34 37 0 0 0
M  V30 BEGIN ATOM
M  V30 1 S 8.7077 -0.4067 0.0 0
M  V30 2 C 9.3769 0.3364 0.0 0
M  V30 3 C 7.7942 0.0 0.0 0 CFG=2
M  V30 4 O 10.3714 0.2318 0.0 0
M  V30 5 N 8.8769 1.2024 0.0 0
M  V30 6 C 6.9282 -0.5 0.0 0
M  V30 7 C 7.8987 0.9945 0.0 0
M  V30 8 C 6.0621 0.0 0.0 0
M  V30 9 C 6.9282 -1.5 0.0 0
M  V30 10 O 7.1556 1.6636 0.0 0
M  V30 11 C 5.1961 -0.5 0.0 0
M  V30 12 C 6.0621 -2.0 0.0 0
M  V30 13 O 4.3301 0.0 0.0 0
M  V30 14 C 5.1961 -1.5 0.0 0
M  V30 15 C 3.4641 -0.5 0.0 0
M  V30 16 C 2.598 0.0 0.0 0
M  V30 17 C 1.732 -0.5 0.0 0
M  V30 18 O 0.866 0.0 0.0 0
M  V30 19 C 0.0 -0.5 0.0 0
M  V30 20 C -0.866 0.0 0.0 0
M  V30 21 C 0.0 -1.4999 0.0 0
M  V30 22 C -1.732 -0.4999 0.0 0
M  V30 23 C -0.866 1.0 0.0 0
M  V30 24 C -0.866 -1.9999 0.0 0
M  V30 25 C -1.732 -1.4999 0.0 0
M  V30 26 C 0.0 1.5 0.0 0
M  V30 27 O -2.598 -1.9999 0.0 0
M  V30 28 C 0.0 2.5 0.0 0
M  V30 29 C -2.598 -2.9999 0.0 0
M  V30 30 C -3.4641 -3.4999 0.0 0
M  V30 31 C -1.732 -3.4999 0.0 0
M  V30 32 C -3.4641 -4.4999 0.0 0
M  V30 33 C -1.732 -4.4999 0.0 0
M  V30 34 C -2.598 -4.9999 0.0 0
M  V30 END ATOM
M  V30 BEGIN BOND
M  V30 1 1 1 2
M  V30 2 1 1 3
M  V30 3 2 2 4
M  V30 4 1 2 5
M  V30 5 1 3 6 CFG=3
M  V30 6 1 3 7
M  V30 7 2 6 8
M  V30 8 1 6 9
M  V30 9 2 7 10
M  V30 10 1 8 11
M  V30 11 2 9 12
M  V30 12 1 11 13
M  V30 13 2 11 14
M  V30 14 1 13 15
M  V30 15 1 15 16
M  V30 16 1 16 17
M  V30 17 1 17 18
M  V30 18 1 18 19
M  V30 19 2 19 20
M  V30 20 1 19 21
M  V30 21 1 20 22
M  V30 22 1 20 23
M  V30 23 2 21 24
M  V30 24 2 22 25
M  V30 25 1 23 26
M  V30 26 1 25 27
M  V30 27 1 26 28
M  V30 28 1 27 29
M  V30 29 2 29 30
M  V30 30 1 29 31
M  V30 31 1 30 32
M  V30 32 2 31 33
M  V30 33 2 32 34
M  V30 34 1 5 7
M  V30 35 1 12 14
M  V30 36 1 24 25
M  V30 37 1 33 34
M  V30 END BOND
M  V30 BEGIN COLLECTION
M  V30 MDLV30/STERAC1 ATOMS=(1 3)
M  V30 END COLLECTION
M  V30 END CTAB
M  END
>  <Molecule ChEMBL ID>
CHEMBL94306

>  <Smiles>
CCCc1cc(Oc2ccccc2)ccc1OCCCOc1cccc(C2SC(=O)NC2=O)c1

>  <IC50_nM>
57

>  <Assay Description>
In vitro binding affinity against human peroxisome proliferator activated receptor gamma

$$$$
CHEMBL94306
Actelion Java MolfileCreator 2.0

  0  0  0  0  0  0              0 V3000
M  V30 BEGIN CTAB
M  V30 COUNTS 34 37 0 0 0
M  V30 BEGIN ATOM
M  V30 1 S 8.7077 -0.4067 0.0 0
M  V30 2 C 9.3769 0.3364 0.0 0
M  V30 3 C 7.7942 0.0 0.0 0 CFG=2
M  V30 4 O 10.3714 0.2318 0.0 0
M  V30 5 N 8.8769 1.2024 0.0 0
M  V30 6 C 6.9282 -0.5 0.0 0
M  V30 7 C 7.8987 0.9945 0.0 0
M  V30 8 C 6.0621 0.0 0.0 0
M  V30 9 C 6.9282 -1.5 0.0 0
M  V30 10 O 7.1556 1.6636 0.0 0
M  V30 11 C 5.1961 -0.5 0.0 0
M  V30 12 C 6.0621 -2.0 0.0 0
M  V30 13 O 4.3301 0.0 0.0 0
M  V30 14 C 5.1961 -1.5 0.0 0
M  V30 15 C 3.4641 -0.5 0.0 0
M  V30 16 C 2.598 0.0 0.0 0
M  V30 17 C 1.732 -0.5 0.0 0
M  V30 18 O 0.866 0.0 0.0 0
M  V30 19 C 0.0 -0.5 0.0 0
M  V30 20 C -0.866 0.0 0.0 0
M  V30 21 C 0.0 -1.4999 0.0 0
M  V30 22 C -1.732 -0.4999 0.0 0
M  V30 23 C -0.866 1.0 0.0 0
M  V30 24 C -0.866 -1.9999 0.0 0
M  V30 25 C -1.732 -1.4999 0.0 0
M  V30 26 C 0.0 1.5 0.0 0
M  V30 27 O -2.598 -1.9999 0.0 0
M  V30 28 C 0.0 2.5 0.0 0
M  V30 29 C -2.598 -2.9999 0.0 0
M  V30 30 C -3.4641 -3.4999 0.0 0
M  V30 31 C -1.732 -3.4999 0.0 0
M  V30 32 C -3.4641 -4.4999 0.0 0
M  V30 33 C -1.732 -4.4999 0.0 0
M  V30 34 C -2.598 -4.9999 0.0 0
M  V30 END ATOM
M  V30 BEGIN BOND
M  V30 1 1 1 2
M  V30 2 1 1 3
M  V30 3 2 2 4
M  V30 4 1 2 5
M  V30 5 1 3 6 CFG=3
M  V30 6 1 3 7
M  V30 7 2 6 8
M  V30 8 1 6 9
M  V30 9 2 7 10
M  V30 10 1 8 11
M  V30 11 2 9 12
M  V30 12 1 11 13
M  V30 13 2 11 14
M  V30 14 1 13 15
M  V30 15 1 15 16
M  V30 16 1 16 17
M  V30 17 1 17 18
M  V30 18 1 18 19
M  V30 19 2 19 20
M  V30 20 1 19 21
M  V30 21 1 20 22
M  V30 22 1 20 23
M  V30 23 2 21 24
M  V30 24 2 22 25
M  V30 25 1 23 26
M  V30 26 1 25 27
M  V30 27 1 26 28
M  V30 28 1 27 29
M  V30 29 2 29 30
M  V30 30 1 29 31
M  V30 31 1 30 32
M  V30 32 2 31 33
M  V30 33 2 32 34
M  V30 34 1 5 7
M  V30 35 1 12 14
M  V30 36 1 24 25
M  V30 37 1 33 34
M  V30 END BOND
M  V30 BEGIN COLLECTION
M  V30 MDLV30/STERAC1 ATOMS=(1 3)
M  V30 END COLLECTION
M  V30 END CTAB
M  END
>  <Molecule ChEMBL ID>
CHEMBL94306

>  <Smiles>
CCCc1cc(Oc2ccccc2)ccc1OCCCOc1cccc(C2SC(=O)NC2=O)c1

>  <IC50_nM>
57

>  <Assay Description>
In vitro binding affinity against human peroxisome proliferator activated receptor gamma

$$$$
CHEMBL3699387
Actelion Java MolfileCreator 2.0

  0  0  0  0  0  0              0 V3000
M  V30 BEGIN CTAB
M  V30 COUNTS 40 44 0 0 0
M  V30 BEGIN ATOM
M  V30 1 F 6.4951 -4.4999 0.0 0
M  V30 2 C 6.4951 -2.9999 0.0 0
M  V30 3 C 5.1961 -2.25 0.0 0
M  V30 4 C 7.7942 -2.2499 0.0 0
M  V30 5 C 5.1961 -0.75 0.0 0
M  V30 6 C 7.7942 -0.7499 0.0 0
M  V30 7 C 6.4951 0.0 0.0 0
M  V30 8 C 3.8971 0.0 0.0 0 CFG=1
M  V30 9 C 6.4951 1.5 0.0 0
M  V30 10 N 2.598 -0.75 0.0 0
M  V30 11 C 3.8971 1.5 0.0 0
M  V30 12 F 7.9951 1.5 0.0 0
M  V30 13 F 6.4951 3.0 0.0 0
M  V30 14 F 4.9951 1.4999 0.0 0
M  V30 15 C 1.299 0.0 0.0 0
M  V30 16 O 1.299 1.5 0.0 0
M  V30 17 C 0.0 -0.75 0.0 0
M  V30 18 C 0.0 -2.2499 0.0 0
M  V30 19 C -1.299 0.0 0.0 0
M  V30 20 C -1.299 -2.9999 0.0 0
M  V30 21 C -2.598 -0.7499 0.0 0
M  V30 22 C -2.598 -2.2499 0.0 0
M  V30 23 C -1.6109 -4.4672 0.0 0
M  V30 24 N -3.7127 -3.2536 0.0 0
M  V30 25 C -3.1026 -4.624 0.0 0
M  V30 26 C -0.6072 -5.5819 0.0 0
M  V30 27 C -5.18 -2.9418 0.0 0
M  V30 28 C -3.8526 -5.923 0.0 0
M  V30 29 C -6.1837 -4.0565 0.0 0
M  V30 30 C -7.6509 -3.7446 0.0 0
M  V30 31 C -5.7201 -5.4831 0.0 0
M  V30 32 C -8.6546 -4.8593 0.0 0
M  V30 33 C -6.7238 -6.5978 0.0 0
M  V30 34 C -8.1911 -6.2859 0.0 0
M  V30 35 C -9.1947 -7.4006 0.0 0
M  V30 36 C -10.662 -7.0888 0.0 0
M  V30 37 C -8.7312 -8.8272 0.0 0
M  V30 38 C -11.6657 -8.2035 0.0 0
M  V30 39 C -9.7349 -9.9419 0.0 0
M  V30 40 C -11.2021 -9.6301 0.0 0
M  V30 END ATOM
M  V30 BEGIN BOND
M  V30 1 1 1 2
M  V30 2 2 2 3
M  V30 3 1 2 4
M  V30 4 1 3 5
M  V30 5 2 4 6
M  V30 6 2 5 7
M  V30 7 1 5 8
M  V30 8 1 7 9
M  V30 9 1 8 10
M  V30 10 1 8 11 CFG=1
M  V30 11 1 9 12
M  V30 12 1 9 13
M  V30 13 1 9 14
M  V30 14 1 10 15
M  V30 15 2 15 16
M  V30 16 1 15 17
M  V30 17 2 17 18
M  V30 18 1 17 19
M  V30 19 1 18 20
M  V30 20 2 19 21
M  V30 21 2 20 22
M  V30 22 1 20 23
M  V30 23 1 22 24
M  V30 24 2 23 25
M  V30 25 1 23 26
M  V30 26 1 24 27
M  V30 27 1 25 28
M  V30 28 1 27 29
M  V30 29 2 29 30
M  V30 30 1 29 31
M  V30 31 1 30 32
M  V30 32 2 31 33
M  V30 33 2 32 34
M  V30 34 1 34 35
M  V30 35 2 35 36
M  V30 36 1 35 37
M  V30 37 1 36 38
M  V30 38 2 37 39
M  V30 39 2 38 40
M  V30 40 1 6 7
M  V30 41 1 21 22
M  V30 42 1 24 25
M  V30 43 1 33 34
M  V30 44 1 39 40
M  V30 END BOND
M  V30 BEGIN COLLECTION
M  V30 MDLV30/STEABS ATOMS=(1 8)
M  V30 END COLLECTION
M  V30 END CTAB
M  END
>  <Molecule ChEMBL ID>
CHEMBL3699387

>  <Smiles>
Cc1c(C)n(Cc2ccc(-c3ccccc3)cc2)c2ccc(C(=O)N[C@@H](C)c3cc(F)ccc3C(F)(F)F)cc12

>  <IC50_nM>
57

>  <Assay Description>
Lanthascreen Competitive Binding Assay: The assay was performed according to manufacturer protocol. A mixture of nM GST-PPARG-LBD, 5 nM Tb-GST-antibody, 5 nM Fluormone Pan-PPAR Green, and serial dilutions of the experimental compound, beginning at 10 ׬M downwards, was added to wells of black 384-well low-volume plates (Greiner) to a total volume of 18 ׬L. All dilutions were made in TR-FRET assay buffer C. DMSO at 2% final concentration was used as a no-ligand control. Experiment was performed in triplicate, and incubated for 2 hours in the dark prior to assay read in Perkin Elmer ViewLux ultra HTS microplate reader. FRET signal was measured by excitation at 340 nm and emission at 520 nm for fluorescein and 490 nm for terbium. Fold change over DMSO was calculated using GraphPad Prism Software (La Jolla, Calif.) by calculating 520 nm/490 nm ratio. Graphs were plotted as fold change of FRET signal for compound treatment over DMSO-only control.

$$$$
CHEMBL1783066
Actelion Java MolfileCreator 2.0

  0  0  0  0  0  0              0 V3000
M  V30 BEGIN CTAB
M  V30 COUNTS 34 37 0 0 0
M  V30 BEGIN ATOM
M  V30 1 S 8.7077 -0.4067 0.0 0
M  V30 2 C 9.3769 0.3364 0.0 0
M  V30 3 C 7.7942 0.0 0.0 0 CFG=1
M  V30 4 O 10.3714 0.2318 0.0 0
M  V30 5 N 8.8769 1.2024 0.0 0
M  V30 6 C 6.9282 -0.5 0.0 0
M  V30 7 C 7.8987 0.9945 0.0 0
M  V30 8 C 6.0621 0.0 0.0 0
M  V30 9 C 6.9282 -1.5 0.0 0
M  V30 10 O 7.1556 1.6636 0.0 0
M  V30 11 C 5.1961 -0.5 0.0 0
M  V30 12 C 6.0621 -2.0 0.0 0
M  V30 13 O 4.3301 0.0 0.0 0
M  V30 14 C 5.1961 -1.5 0.0 0
M  V30 15 C 3.4641 -0.5 0.0 0
M  V30 16 C 2.598 0.0 0.0 0
M  V30 17 C 1.732 -0.5 0.0 0
M  V30 18 O 0.866 0.0 0.0 0
M  V30 19 C 0.0 -0.5 0.0 0
M  V30 20 C -0.866 0.0 0.0 0
M  V30 21 C 0.0 -1.4999 0.0 0
M  V30 22 C -1.732 -0.4999 0.0 0
M  V30 23 C -0.866 1.0 0.0 0
M  V30 24 C -0.866 -1.9999 0.0 0
M  V30 25 C -1.732 -1.4999 0.0 0
M  V30 26 C 0.0 1.5 0.0 0
M  V30 27 O -2.598 -1.9999 0.0 0
M  V30 28 C 0.0 2.5 0.0 0
M  V30 29 C -2.598 -2.9999 0.0 0
M  V30 30 C -3.4641 -3.4999 0.0 0
M  V30 31 C -1.732 -3.4999 0.0 0
M  V30 32 C -3.4641 -4.4999 0.0 0
M  V30 33 C -1.732 -4.4999 0.0 0
M  V30 34 C -2.598 -4.9999 0.0 0
M  V30 END ATOM
M  V30 BEGIN BOND
M  V30 1 1 1 2
M  V30 2 1 1 3
M  V30 3 2 2 4
M  V30 4 1 2 5
M  V30 5 1 3 6 CFG=1
M  V30 6 1 3 7
M  V30 7 2 6 8
M  V30 8 1 6 9
M  V30 9 2 7 10
M  V30 10 1 8 11
M  V30 11 2 9 12
M  V30 12 1 11 13
M  V30 13 2 11 14
M  V30 14 1 13 15
M  V30 15 1 15 16
M  V30 16 1 16 17
M  V30 17 1 17 18
M  V30 18 1 18 19
M  V30 19 2 19 20
M  V30 20 1 19 21
M  V30 21 1 20 22
M  V30 22 1 20 23
M  V30 23 2 21 24
M  V30 24 2 22 25
M  V30 25 1 23 26
M  V30 26 1 25 27
M  V30 27 1 26 28
M  V30 28 1 27 29
M  V30 29 2 29 30
M  V30 30 1 29 31
M  V30 31 1 30 32
M  V30 32 2 31 33
M  V30 33 2 32 34
M  V30 34 1 5 7
M  V30 35 1 12 14
M  V30 36 1 24 25
M  V30 37 1 33 34
M  V30 END BOND
M  V30 BEGIN COLLECTION
M  V30 MDLV30/STEABS ATOMS=(1 3)
M  V30 END COLLECTION
M  V30 END CTAB
M  END
>  <Molecule ChEMBL ID>
CHEMBL1783066

>  <Smiles>
CCCc1cc(Oc2ccccc2)ccc1OCCCOc1cccc([C@@H]2SC(=O)NC2=O)c1

>  <IC50_nM>
57

>  <Assay Description>
Displacement of radio-labeled full agonist from PPARgamma receptor

$$$$
CHEMBL94306
Actelion Java MolfileCreator 2.0

  0  0  0  0  0  0              0 V3000
M  V30 BEGIN CTAB
M  V30 COUNTS 34 37 0 0 0
M  V30 BEGIN ATOM
M  V30 1 S 8.7077 -0.4067 0.0 0
M  V30 2 C 9.3769 0.3364 0.0 0
M  V30 3 C 7.7942 0.0 0.0 0 CFG=2
M  V30 4 O 10.3714 0.2318 0.0 0
M  V30 5 N 8.8769 1.2024 0.0 0
M  V30 6 C 6.9282 -0.5 0.0 0
M  V30 7 C 7.8987 0.9945 0.0 0
M  V30 8 C 6.0621 0.0 0.0 0
M  V30 9 C 6.9282 -1.5 0.0 0
M  V30 10 O 7.1556 1.6636 0.0 0
M  V30 11 C 5.1961 -0.5 0.0 0
M  V30 12 C 6.0621 -2.0 0.0 0
M  V30 13 O 4.3301 0.0 0.0 0
M  V30 14 C 5.1961 -1.5 0.0 0
M  V30 15 C 3.4641 -0.5 0.0 0
M  V30 16 C 2.598 0.0 0.0 0
M  V30 17 C 1.732 -0.5 0.0 0
M  V30 18 O 0.866 0.0 0.0 0
M  V30 19 C 0.0 -0.5 0.0 0
M  V30 20 C -0.866 0.0 0.0 0
M  V30 21 C 0.0 -1.4999 0.0 0
M  V30 22 C -1.732 -0.4999 0.0 0
M  V30 23 C -0.866 1.0 0.0 0
M  V30 24 C -0.866 -1.9999 0.0 0
M  V30 25 C -1.732 -1.4999 0.0 0
M  V30 26 C 0.0 1.5 0.0 0
M  V30 27 O -2.598 -1.9999 0.0 0
M  V30 28 C 0.0 2.5 0.0 0
M  V30 29 C -2.598 -2.9999 0.0 0
M  V30 30 C -3.4641 -3.4999 0.0 0
M  V30 31 C -1.732 -3.4999 0.0 0
M  V30 32 C -3.4641 -4.4999 0.0 0
M  V30 33 C -1.732 -4.4999 0.0 0
M  V30 34 C -2.598 -4.9999 0.0 0
M  V30 END ATOM
M  V30 BEGIN BOND
M  V30 1 1 1 2
M  V30 2 1 1 3
M  V30 3 2 2 4
M  V30 4 1 2 5
M  V30 5 1 3 6 CFG=3
M  V30 6 1 3 7
M  V30 7 2 6 8
M  V30 8 1 6 9
M  V30 9 2 7 10
M  V30 10 1 8 11
M  V30 11 2 9 12
M  V30 12 1 11 13
M  V30 13 2 11 14
M  V30 14 1 13 15
M  V30 15 1 15 16
M  V30 16 1 16 17
M  V30 17 1 17 18
M  V30 18 1 18 19
M  V30 19 2 19 20
M  V30 20 1 19 21
M  V30 21 1 20 22
M  V30 22 1 20 23
M  V30 23 2 21 24
M  V30 24 2 22 25
M  V30 25 1 23 26
M  V30 26 1 25 27
M  V30 27 1 26 28
M  V30 28 1 27 29
M  V30 29 2 29 30
M  V30 30 1 29 31
M  V30 31 1 30 32
M  V30 32 2 31 33
M  V30 33 2 32 34
M  V30 34 1 5 7
M  V30 35 1 12 14
M  V30 36 1 24 25
M  V30 37 1 33 34
M  V30 END BOND
M  V30 BEGIN COLLECTION
M  V30 MDLV30/STERAC1 ATOMS=(1 3)
M  V30 END COLLECTION
M  V30 END CTAB
M  END
>  <Molecule ChEMBL ID>
CHEMBL94306

>  <Smiles>
CCCc1cc(Oc2ccccc2)ccc1OCCCOc1cccc(C2SC(=O)NC2=O)c1

>  <IC50_nM>
57

>  <Assay Description>
Displacement of radio-labeled full agonist from PPARgamma receptor

$$$$
CHEMBL3695785
Actelion Java MolfileCreator 2.0

  0  0  0  0  0  0              0 V3000
M  V30 BEGIN CTAB
M  V30 COUNTS 39 43 0 0 0
M  V30 BEGIN ATOM
M  V30 1 Br 6.0621 0.0 0.0 0
M  V30 2 C 5.1961 -0.5 0.0 0
M  V30 3 C 4.3301 0.0 0.0 0
M  V30 4 C 5.1961 -1.4999 0.0 0
M  V30 5 C 3.4641 -0.5 0.0 0
M  V30 6 C 4.3301 -1.9999 0.0 0
M  V30 7 C 3.4641 -1.4999 0.0 0
M  V30 8 C 2.598 0.0 0.0 0 CFG=1
M  V30 9 N 1.732 -0.5 0.0 0
M  V30 10 C 2.598 1.0 0.0 0
M  V30 11 C 0.866 0.0 0.0 0
M  V30 12 O 0.866 1.0 0.0 0
M  V30 13 C 0.0 -0.5 0.0 0
M  V30 14 C 0.0 -1.4999 0.0 0
M  V30 15 C -0.866 0.0 0.0 0
M  V30 16 C -0.866 -1.9999 0.0 0
M  V30 17 C -1.732 -0.4999 0.0 0
M  V30 18 C -1.732 -1.4999 0.0 0
M  V30 19 C -1.0739 -2.9781 0.0 0
M  V30 20 N -2.4751 -2.1691 0.0 0
M  V30 21 C -2.0684 -3.0826 0.0 0
M  V30 22 C -0.4048 -3.7212 0.0 0
M  V30 23 C -3.4533 -1.9612 0.0 0
M  V30 24 C -2.5684 -3.9487 0.0 0
M  V30 25 C -4.1224 -2.7043 0.0 0
M  V30 26 C -5.1006 -2.4964 0.0 0
M  V30 27 C -3.8134 -3.6554 0.0 0
M  V30 28 C -5.7697 -3.2395 0.0 0
M  V30 29 C -4.4825 -4.3985 0.0 0
M  V30 30 C -5.4607 -4.1906 0.0 0
M  V30 31 C -6.1298 -4.9337 0.0 0
M  V30 32 C -7.108 -4.7258 0.0 0
M  V30 33 C -5.8208 -5.8848 0.0 0
M  V30 34 C -7.417 -3.7748 0.0 0
M  V30 35 C -7.7771 -5.469 0.0 0
M  V30 36 C -6.4899 -6.6279 0.0 0
M  V30 37 O -6.7478 -3.0316 0.0 0
M  V30 38 O -8.3951 -3.5669 0.0 0
M  V30 39 C -7.4681 -6.42 0.0 0
M  V30 END ATOM
M  V30 BEGIN BOND
M  V30 1 1 1 2
M  V30 2 2 2 3
M  V30 3 1 2 4
M  V30 4 1 3 5
M  V30 5 2 4 6
M  V30 6 2 5 7
M  V30 7 1 5 8
M  V30 8 1 8 9
M  V30 9 1 8 10 CFG=1
M  V30 10 1 9 11
M  V30 11 2 11 12
M  V30 12 1 11 13
M  V30 13 2 13 14
M  V30 14 1 13 15
M  V30 15 1 14 16
M  V30 16 2 15 17
M  V30 17 2 16 18
M  V30 18 1 16 19
M  V30 19 1 18 20
M  V30 20 2 19 21
M  V30 21 1 19 22
M  V30 22 1 20 23
M  V30 23 1 21 24
M  V30 24 1 23 25
M  V30 25 2 25 26
M  V30 26 1 25 27
M  V30 27 1 26 28
M  V30 28 2 27 29
M  V30 29 2 28 30
M  V30 30 1 30 31
M  V30 31 2 31 32
M  V30 32 1 31 33
M  V30 33 1 32 34
M  V30 34 1 32 35
M  V30 35 2 33 36
M  V30 36 2 34 37
M  V30 37 1 34 38
M  V30 38 2 35 39
M  V30 39 1 6 7
M  V30 40 1 17 18
M  V30 41 1 20 21
M  V30 42 1 29 30
M  V30 43 1 36 39
M  V30 END BOND
M  V30 BEGIN COLLECTION
M  V30 MDLV30/STEABS ATOMS=(1 8)
M  V30 END COLLECTION
M  V30 END CTAB
M  END
>  <Molecule ChEMBL ID>
CHEMBL3695785

>  <Smiles>
Cc1c(C)n(Cc2ccc(-c3ccccc3C(=O)O)cc2)c2ccc(C(=O)N[C@@H](C)c3cccc(Br)c3)cc12

>  <IC50_nM>
58

>  <Assay Description>
Lanthascreen Competitive Binding Assay: The assay was performed according to manufacturer protocol. A mixture of nM GST-PPARG-LBD, 5 nM Tb-GST-antibody, 5 nM Fluormone Pan-PPAR Green, and serial dilutions of the experimental compound, beginning at 10 ׬M downwards, was added to wells of black 384-well low-volume plates (Greiner) to a total volume of 18 ׬L. All dilutions were made in TR-FRET assay buffer C. DMSO at 2% final concentration was used as a no-ligand control. Experiment was performed in triplicate, and incubated for 2 hours in the dark prior to assay read in Perkin Elmer ViewLux ultra HTS microplate reader. FRET signal was measured by excitation at 340 nm and emission at 520 nm for fluorescein and 490 nm for terbium. Fold change over DMSO was calculated using GraphPad Prism Software (La Jolla, Calif.) by calculating 520 nm/490 nm ratio. Graphs were plotted as fold change of FRET signal for compound treatment over DMSO-only control.

$$$$
CHEMBL3699386
Actelion Java MolfileCreator 2.0

  0  0  0  0  0  0              0 V3000
M  V30 BEGIN CTAB
M  V30 COUNTS 44 49 0 0 0
M  V30 BEGIN ATOM
M  V30 1 O 6.448 0.1816 0.0 0
M  V30 2 C 6.0412 -0.7318 0.0 0
M  V30 3 O 6.629 -1.5408 0.0 0
M  V30 4 N 5.0467 -0.8364 0.0 0
M  V30 5 C 6.2223 -2.4544 0.0 0
M  V30 6 C 4.3776 -0.0932 0.0 0
M  V30 7 C 4.5467 -1.7024 0.0 0
M  V30 8 C 6.8101 -3.2634 0.0 0
M  V30 9 C 3.4641 -0.5 0.0 0 CFG=1
M  V30 10 C 3.5686 -1.4945 0.0 0
M  V30 11 C 6.4033 -4.177 0.0 0
M  V30 12 C 7.8046 -3.1589 0.0 0
M  V30 13 C 2.598 0.0 0.0 0 CFG=1
M  V30 14 C 6.9911 -4.986 0.0 0
M  V30 15 C 8.3924 -3.9679 0.0 0
M  V30 16 N 1.732 -0.5 0.0 0
M  V30 17 C 2.598 1.0 0.0 0
M  V30 18 C 7.9857 -4.8814 0.0 0
M  V30 19 C 0.866 0.0 0.0 0
M  V30 20 O 0.866 1.0 0.0 0
M  V30 21 C 0.0 -0.5 0.0 0
M  V30 22 C 0.0 -1.4999 0.0 0
M  V30 23 C -0.866 0.0 0.0 0
M  V30 24 C -0.866 -1.9999 0.0 0
M  V30 25 C -1.732 -0.4999 0.0 0
M  V30 26 C -1.732 -1.4999 0.0 0
M  V30 27 C -1.0739 -2.9781 0.0 0
M  V30 28 N -2.4751 -2.1691 0.0 0
M  V30 29 C -2.0684 -3.0826 0.0 0
M  V30 30 C -0.4048 -3.7212 0.0 0
M  V30 31 C -3.4533 -1.9612 0.0 0
M  V30 32 C -2.5684 -3.9487 0.0 0
M  V30 33 C -4.1224 -2.7043 0.0 0
M  V30 34 C -5.1006 -2.4964 0.0 0
M  V30 35 C -3.8134 -3.6554 0.0 0
M  V30 36 C -5.7697 -3.2395 0.0 0
M  V30 37 C -4.4825 -4.3985 0.0 0
M  V30 38 C -5.4607 -4.1906 0.0 0
M  V30 39 C -6.1298 -4.9337 0.0 0
M  V30 40 C -7.108 -4.7258 0.0 0
M  V30 41 C -5.8208 -5.8848 0.0 0
M  V30 42 C -7.7771 -5.469 0.0 0
M  V30 43 C -6.4899 -6.6279 0.0 0
M  V30 44 C -7.4681 -6.42 0.0 0
M  V30 END ATOM
M  V30 BEGIN BOND
M  V30 1 2 1 2
M  V30 2 1 2 3
M  V30 3 1 2 4
M  V30 4 1 3 5
M  V30 5 1 4 6
M  V30 6 1 4 7
M  V30 7 1 5 8
M  V30 8 1 9 6 CFG=1
M  V30 9 1 7 10
M  V30 10 2 8 11
M  V30 11 1 8 12
M  V30 12 1 9 13
M  V30 13 1 11 14
M  V30 14 2 12 15
M  V30 15 1 13 16
M  V30 16 1 13 17 CFG=1
M  V30 17 2 14 18
M  V30 18 1 16 19
M  V30 19 2 19 20
M  V30 20 1 19 21
M  V30 21 2 21 22
M  V30 22 1 21 23
M  V30 23 1 22 24
M  V30 24 2 23 25
M  V30 25 2 24 26
M  V30 26 1 24 27
M  V30 27 1 26 28
M  V30 28 2 27 29
M  V30 29 1 27 30
M  V30 30 1 28 31
M  V30 31 1 29 32
M  V30 32 1 31 33
M  V30 33 2 33 34
M  V30 34 1 33 35
M  V30 35 1 34 36
M  V30 36 2 35 37
M  V30 37 2 36 38
M  V30 38 1 38 39
M  V30 39 2 39 40
M  V30 40 1 39 41
M  V30 41 1 40 42
M  V30 42 2 41 43
M  V30 43 2 42 44
M  V30 44 1 9 10
M  V30 45 1 15 18
M  V30 46 1 25 26
M  V30 47 1 28 29
M  V30 48 1 37 38
M  V30 49 1 43 44
M  V30 END BOND
M  V30 BEGIN COLLECTION
M  V30 MDLV30/STEABS ATOMS=(2 9 13)
M  V30 END COLLECTION
M  V30 END CTAB
M  END
>  <Molecule ChEMBL ID>
CHEMBL3699386

>  <Smiles>
Cc1c(C)n(Cc2ccc(-c3ccccc3)cc2)c2ccc(C(=O)N[C@@H](C)[C@@H]3CCN(C(=O)OCc4ccccc4)C3)cc12

>  <IC50_nM>
58

>  <Assay Description>
Lanthascreen Competitive Binding Assay: The assay was performed according to manufacturer protocol. A mixture of nM GST-PPARG-LBD, 5 nM Tb-GST-antibody, 5 nM Fluormone Pan-PPAR Green, and serial dilutions of the experimental compound, beginning at 10 ׬M downwards, was added to wells of black 384-well low-volume plates (Greiner) to a total volume of 18 ׬L. All dilutions were made in TR-FRET assay buffer C. DMSO at 2% final concentration was used as a no-ligand control. Experiment was performed in triplicate, and incubated for 2 hours in the dark prior to assay read in Perkin Elmer ViewLux ultra HTS microplate reader. FRET signal was measured by excitation at 340 nm and emission at 520 nm for fluorescein and 490 nm for terbium. Fold change over DMSO was calculated using GraphPad Prism Software (La Jolla, Calif.) by calculating 520 nm/490 nm ratio. Graphs were plotted as fold change of FRET signal for compound treatment over DMSO-only control.

$$$$
CHEMBL198365
Actelion Java MolfileCreator 2.0

  0  0  0  0  0  0              0 V3000
M  V30 BEGIN CTAB
M  V30 COUNTS 39 43 0 0 0
M  V30 BEGIN ATOM
M  V30 1 Cl 5.8147 -1.7024 0.0 0
M  V30 2 C 4.8147 -1.7024 0.0 0
M  V30 3 N 4.3147 -0.8364 0.0 0
M  V30 4 C 4.3147 -2.5684 0.0 0
M  V30 5 C 3.3147 -0.8364 0.0 0
M  V30 6 C 3.3147 -2.5684 0.0 0
M  V30 7 N 2.6455 -0.0932 0.0 0
M  V30 8 C 2.8147 -1.7024 0.0 0
M  V30 9 C 2.8535 0.8848 0.0 0
M  V30 10 C 1.732 -0.5 0.0 0
M  V30 11 C 1.8365 -1.4945 0.0 0
M  V30 12 C 3.8045 1.1939 0.0 0
M  V30 13 C 2.1103 1.554 0.0 0
M  V30 14 C 0.866 0.0 0.0 0
M  V30 15 O 1.0934 -2.1636 0.0 0
M  V30 16 C 4.0124 2.172 0.0 0
M  V30 17 C 2.3182 2.5321 0.0 0
M  V30 18 O 0.866 1.0 0.0 0
M  V30 19 O 0.0 -0.5 0.0 0
M  V30 20 C 1.3013 -3.1418 0.0 0
M  V30 21 C 3.2693 2.8411 0.0 0
M  V30 22 C 0.5582 -3.8109 0.0 0
M  V30 23 C 2.2524 -3.4508 0.0 0
M  V30 24 C 3.4772 3.8193 0.0 0
M  V30 25 C 0.7661 -4.789 0.0 0
M  V30 26 C 2.4603 -4.4289 0.0 0
M  V30 27 C 2.499 4.0272 0.0 0
M  V30 28 C 3.6851 4.7974 0.0 0
M  V30 29 C 4.4553 3.6114 0.0 0
M  V30 30 C 0.0229 -5.4582 0.0 0
M  V30 31 C 1.7171 -5.098 0.0 0
M  V30 32 N -0.9551 -5.2502 0.0 0
M  V30 33 C 0.1274 -6.4527 0.0 0
M  V30 34 C -1.4551 -6.1163 0.0 0
M  V30 35 C -0.786 -6.8594 0.0 0
M  V30 36 C -0.9939 -7.8376 0.0 0
M  V30 37 F -0.0158 -8.0455 0.0 0
M  V30 38 F -1.2018 -8.8157 0.0 0
M  V30 39 F -1.9721 -7.6297 0.0 0
M  V30 END ATOM
M  V30 BEGIN BOND
M  V30 1 1 1 2
M  V30 2 2 2 3
M  V30 3 1 2 4
M  V30 4 1 3 5
M  V30 5 2 4 6
M  V30 6 1 5 7
M  V30 7 2 5 8
M  V30 8 1 7 9
M  V30 9 1 7 10
M  V30 10 1 8 11
M  V30 11 2 9 12
M  V30 12 1 9 13
M  V30 13 1 10 14
M  V30 14 1 11 15
M  V30 15 1 12 16
M  V30 16 2 13 17
M  V30 17 2 14 18
M  V30 18 1 14 19
M  V30 19 1 15 20
M  V30 20 2 16 21
M  V30 21 2 20 22
M  V30 22 1 20 23
M  V30 23 1 21 24
M  V30 24 1 22 25
M  V30 25 2 23 26
M  V30 26 1 24 27
M  V30 27 1 24 28
M  V30 28 1 24 29
M  V30 29 1 25 30
M  V30 30 2 25 31
M  V30 31 1 30 32
M  V30 32 2 30 33
M  V30 33 1 32 34
M  V30 34 1 33 35
M  V30 35 1 35 36
M  V30 36 1 36 37
M  V30 37 1 36 38
M  V30 38 1 36 39
M  V30 39 1 6 8
M  V30 40 2 10 11
M  V30 41 1 17 21
M  V30 42 1 26 31
M  V30 43 2 34 35
M  V30 END BOND
M  V30 END CTAB
M  END
>  <Molecule ChEMBL ID>
CHEMBL198365

>  <Smiles>
CC(C)(C)c1ccc(-n2c(C(=O)O)c(Oc3cccc(-c4cc(C(F)(F)F)c[nH]4)c3)c3ccc(Cl)nc32)cc1

>  <IC50_nM>
58

>  <Assay Description>
Inhibitory concentration against human peroxisome proliferator activated receptor gamma in SPA assay

$$$$
CHEMBL122418
Actelion Java MolfileCreator 2.0

  0  0  0  0  0  0              0 V3000
M  V30 BEGIN CTAB
M  V30 COUNTS 34 37 0 0 0
M  V30 BEGIN ATOM
M  V30 1 S 8.7077 -0.4067 0.0 0
M  V30 2 C 9.3769 0.3364 0.0 0
M  V30 3 C 7.7942 0.0 0.0 0 CFG=2
M  V30 4 O 10.3714 0.2318 0.0 0
M  V30 5 N 8.8769 1.2024 0.0 0
M  V30 6 C 6.9282 -0.5 0.0 0
M  V30 7 C 7.8987 0.9945 0.0 0
M  V30 8 C 6.0621 0.0 0.0 0
M  V30 9 C 6.9282 -1.5 0.0 0
M  V30 10 O 7.1556 1.6636 0.0 0
M  V30 11 C 5.1961 -0.5 0.0 0
M  V30 12 C 6.0621 -2.0 0.0 0
M  V30 13 O 4.3301 0.0 0.0 0
M  V30 14 C 5.1961 -1.5 0.0 0
M  V30 15 C 3.4641 -0.5 0.0 0
M  V30 16 C 2.598 0.0 0.0 0
M  V30 17 C 1.732 -0.5 0.0 0
M  V30 18 O 0.866 0.0 0.0 0
M  V30 19 C 0.0 -0.5 0.0 0
M  V30 20 C -0.866 0.0 0.0 0
M  V30 21 C 0.0 -1.4999 0.0 0
M  V30 22 C -1.732 -0.4999 0.0 0
M  V30 23 C -0.866 1.0 0.0 0
M  V30 24 C -0.866 -1.9999 0.0 0
M  V30 25 C -1.732 -1.4999 0.0 0
M  V30 26 C 0.0 1.5 0.0 0
M  V30 27 C -2.598 -1.9999 0.0 0
M  V30 28 C 0.0 2.5 0.0 0
M  V30 29 C -2.598 -2.9999 0.0 0
M  V30 30 C -3.4641 -3.4999 0.0 0
M  V30 31 C -1.732 -3.4999 0.0 0
M  V30 32 C -3.4641 -4.4999 0.0 0
M  V30 33 C -1.732 -4.4999 0.0 0
M  V30 34 C -2.598 -4.9999 0.0 0
M  V30 END ATOM
M  V30 BEGIN BOND
M  V30 1 1 1 2
M  V30 2 1 1 3
M  V30 3 2 2 4
M  V30 4 1 2 5
M  V30 5 1 3 6 CFG=3
M  V30 6 1 3 7
M  V30 7 2 6 8
M  V30 8 1 6 9
M  V30 9 2 7 10
M  V30 10 1 8 11
M  V30 11 2 9 12
M  V30 12 1 11 13
M  V30 13 2 11 14
M  V30 14 1 13 15
M  V30 15 1 15 16
M  V30 16 1 16 17
M  V30 17 1 17 18
M  V30 18 1 18 19
M  V30 19 2 19 20
M  V30 20 1 19 21
M  V30 21 1 20 22
M  V30 22 1 20 23
M  V30 23 2 21 24
M  V30 24 2 22 25
M  V30 25 1 23 26
M  V30 26 1 25 27
M  V30 27 1 26 28
M  V30 28 1 27 29
M  V30 29 1 29 30
M  V30 30 1 29 31
M  V30 31 1 30 32
M  V30 32 1 31 33
M  V30 33 1 32 34
M  V30 34 1 5 7
M  V30 35 1 12 14
M  V30 36 1 24 25
M  V30 37 1 33 34
M  V30 END BOND
M  V30 BEGIN COLLECTION
M  V30 MDLV30/STERAC1 ATOMS=(1 3)
M  V30 END COLLECTION
M  V30 END CTAB
M  END
>  <Molecule ChEMBL ID>
CHEMBL122418

>  <Smiles>
CCCc1cc(CC2CCCCC2)ccc1OCCCOc1cccc(C2SC(=O)NC2=O)c1

>  <IC50_nM>
59

>  <Assay Description>
In vitro binding affinity against human peroxisome proliferator activated receptor gamma

$$$$
CHEMBL3639982
Actelion Java MolfileCreator 2.0

  0  0  0  0  0  0              0 V3000
M  V30 BEGIN CTAB
M  V30 COUNTS 41 46 0 0 0
M  V30 BEGIN ATOM
M  V30 1 O 11.8592 -3.5669 0.0 0
M  V30 2 C 10.8811 -3.7748 0.0 0
M  V30 3 O 10.212 -3.0316 0.0 0
M  V30 4 C 10.5721 -4.7258 0.0 0
M  V30 5 C 9.5939 -4.9337 0.0 0
M  V30 6 C 11.2412 -5.469 0.0 0
M  V30 7 C 8.9248 -4.1906 0.0 0
M  V30 8 C 9.2849 -5.8848 0.0 0
M  V30 9 C 10.9322 -6.42 0.0 0
M  V30 10 C 9.2338 -3.2395 0.0 0
M  V30 11 C 7.9466 -4.3985 0.0 0
M  V30 12 C 9.954 -6.6279 0.0 0
M  V30 13 C 8.5647 -2.4964 0.0 0
M  V30 14 C 7.2775 -3.6554 0.0 0
M  V30 15 C 7.5865 -2.7043 0.0 0
M  V30 16 C 6.9174 -1.9612 0.0 0
M  V30 17 N 5.9392 -2.1691 0.0 0
M  V30 18 C 5.1961 -1.4999 0.0 0
M  V30 19 C 5.5325 -3.0826 0.0 0
M  V30 20 C 4.3301 -1.9999 0.0 0
M  V30 21 C 5.1961 -0.4999 0.0 0
M  V30 22 C 4.538 -2.9781 0.0 0
M  V30 23 C 6.0325 -3.9487 0.0 0
M  V30 24 C 3.4641 -1.5 0.0 0
M  V30 25 C 4.3301 0.0 0.0 0
M  V30 26 C 3.8689 -3.7212 0.0 0
M  V30 27 C 3.4641 -0.5 0.0 0
M  V30 28 C 2.598 0.0 0.0 0
M  V30 29 O 2.598 1.0 0.0 0
M  V30 30 N 1.732 -0.5 0.0 0
M  V30 31 C 0.866 0.0 0.0 0 CFG=2
M  V30 32 C 0.866 1.0 0.0 0
M  V30 33 C 0.0 -0.5 0.0 0
M  V30 34 C 1.732 1.4999 0.0 0
M  V30 35 C 0.0 1.4999 0.0 0
M  V30 36 N 1.732 2.5 0.0 0
M  V30 37 C 0.0 2.5 0.0 0
M  V30 38 C 0.866 3.0 0.0 0
M  V30 39 C 0.866 4.0 0.0 0
M  V30 40 C 1.366 4.866 0.0 0
M  V30 41 C 0.366 4.866 0.0 0
M  V30 END ATOM
M  V30 BEGIN BOND
M  V30 1 2 1 2
M  V30 2 1 2 3
M  V30 3 1 2 4
M  V30 4 2 4 5
M  V30 5 1 4 6
M  V30 6 1 5 7
M  V30 7 1 5 8
M  V30 8 2 6 9
M  V30 9 2 7 10
M  V30 10 1 7 11
M  V30 11 2 8 12
M  V30 12 1 10 13
M  V30 13 2 11 14
M  V30 14 2 13 15
M  V30 15 1 15 16
M  V30 16 1 16 17
M  V30 17 1 17 18
M  V30 18 1 17 19
M  V30 19 2 18 20
M  V30 20 1 18 21
M  V30 21 2 19 22
M  V30 22 1 19 23
M  V30 23 1 20 24
M  V30 24 2 21 25
M  V30 25 1 22 26
M  V30 26 2 24 27
M  V30 27 1 27 28
M  V30 28 2 28 29
M  V30 29 1 28 30
M  V30 30 1 30 31
M  V30 31 1 31 32
M  V30 32 1 31 33 CFG=1
M  V30 33 2 32 34
M  V30 34 1 32 35
M  V30 35 1 34 36
M  V30 36 2 35 37
M  V30 37 2 36 38
M  V30 38 1 38 39
M  V30 39 1 39 40
M  V30 40 1 39 41
M  V30 41 1 9 12
M  V30 42 1 14 15
M  V30 43 1 20 22
M  V30 44 1 25 27
M  V30 45 1 37 38
M  V30 46 1 40 41
M  V30 END BOND
M  V30 BEGIN COLLECTION
M  V30 MDLV30/STEABS ATOMS=(1 31)
M  V30 END COLLECTION
M  V30 END CTAB
M  END
>  <Molecule ChEMBL ID>
CHEMBL3639982

>  <Smiles>
Cc1c(C)n(Cc2ccc(-c3ccccc3C(=O)O)cc2)c2ccc(C(=O)N[C@@H](C)c3ccc(C4CC4)nc3)cc12

>  <IC50_nM>
59

>  <Assay Description>
Lanthascreen Competitive Binding Assay: The assay was performed according to manufacturer protocol. A mixture of nM GST-PPARG-LBD, 5 nM Tb-GST-antibody, 5 nM Fluormone Pan-PPAR Green, and serial dilutions of the experimental compound, beginning at 10 ׬M downwards, was added to wells of black 384-well low-volume plates (Greiner) to a total volume of 18 ׬L. All dilutions were made in TR-FRET assay buffer C. DMSO at 2% final concentration was used as a no-ligand control. Experiment was performed in triplicate, and incubated for 2 hours in the dark prior to assay read in Perkin Elmer ViewLux ultra HTS microplate reader. FRET signal was measured by excitation at 340 nm and emission at 520 nm for fluorescein and 490 nm for terbium. Fold change over DMSO was calculated using GraphPad Prism Software (La Jolla, Calif.) by calculating 520 nm/490 nm ratio. Graphs were plotted as fold change of FRET signal for compound treatment over DMSO-only control.

$$$$
CHEMBL3678149
Actelion Java MolfileCreator 2.0

  0  0  0  0  0  0              0 V3000
M  V30 BEGIN CTAB
M  V30 COUNTS 39 42 0 0 0
M  V30 BEGIN ATOM
M  V30 1 O 17.1679 -0.319 0.0 0
M  V30 2 C 16.1642 0.7957 0.0 0
M  V30 3 N 16.6278 2.2222 0.0 0
M  V30 4 C 14.697 0.4838 0.0 0
M  V30 5 C 18.095 2.5341 0.0 0 CFG=2
M  V30 6 C 14.2335 -0.9427 0.0 0
M  V30 7 C 13.6933 1.5985 0.0 0
M  V30 8 C 19.0987 1.4194 0.0 0
M  V30 9 C 18.5585 3.9607 0.0 0
M  V30 10 C 12.7663 -1.2546 0.0 0
M  V30 11 C 12.2261 1.2866 0.0 0
M  V30 12 C 20.5659 1.7313 0.0 0
M  V30 13 C 18.6352 -0.0071 0.0 0
M  V30 14 C 11.7626 -0.1398 0.0 0
M  V30 15 C 12.0163 -2.5536 0.0 0
M  V30 16 C 21.5696 0.6165 0.0 0
M  V30 17 C 19.6389 -1.1218 0.0 0
M  V30 18 N 10.3923 -0.75 0.0 0
M  V30 19 C 10.549 -2.2417 0.0 0
M  V30 20 C 12.6264 -3.9239 0.0 0
M  V30 21 O 23.0368 0.9284 0.0 0
M  V30 22 C 21.1061 -0.8099 0.0 0
M  V30 23 C 9.0932 0.0 0.0 0
M  V30 24 C 9.4343 -3.2454 0.0 0
M  V30 25 C 23.5003 2.355 0.0 0
M  V30 26 C 7.7942 -0.75 0.0 0
M  V30 27 C 22.4966 3.4697 0.0 0
M  V30 28 C 24.9676 2.6669 0.0 0
M  V30 29 C 6.4951 0.0 0.0 0
M  V30 30 C 7.7942 -2.25 0.0 0
M  V30 31 C 5.1961 -0.75 0.0 0
M  V30 32 C 6.4951 -3.0 0.0 0
M  V30 33 O 3.8971 0.0 0.0 0
M  V30 34 C 5.1961 -2.25 0.0 0
M  V30 35 C 2.598 -0.75 0.0 0 CFG=2
M  V30 36 C 1.299 0.0 0.0 0
M  V30 37 C 2.598 -2.25 0.0 0
M  V30 38 O 1.299 1.5 0.0 0
M  V30 39 O 0.0 -0.75 0.0 0
M  V30 END ATOM
M  V30 BEGIN BOND
M  V30 1 2 1 2
M  V30 2 1 2 3
M  V30 3 1 2 4
M  V30 4 1 3 5
M  V30 5 2 4 6
M  V30 6 1 4 7
M  V30 7 1 5 8
M  V30 8 1 5 9 CFG=1
M  V30 9 1 6 10
M  V30 10 2 7 11
M  V30 11 2 8 12
M  V30 12 1 8 13
M  V30 13 2 10 14
M  V30 14 1 10 15
M  V30 15 1 12 16
M  V30 16 2 13 17
M  V30 17 1 14 18
M  V30 18 2 15 19
M  V30 19 1 15 20
M  V30 20 1 16 21
M  V30 21 2 16 22
M  V30 22 1 18 23
M  V30 23 1 19 24
M  V30 24 1 21 25
M  V30 25 1 23 26
M  V30 26 1 25 27
M  V30 27 1 25 28
M  V30 28 2 26 29
M  V30 29 1 26 30
M  V30 30 1 29 31
M  V30 31 2 30 32
M  V30 32 1 31 33
M  V30 33 2 31 34
M  V30 34 1 33 35
M  V30 35 1 35 36
M  V30 36 1 35 37 CFG=1
M  V30 37 2 36 38
M  V30 38 1 36 39
M  V30 39 1 11 14
M  V30 40 1 17 22
M  V30 41 1 18 19
M  V30 42 1 32 34
M  V30 END BOND
M  V30 BEGIN COLLECTION
M  V30 MDLV30/STEABS ATOMS=(2 5 35)
M  V30 END COLLECTION
M  V30 END CTAB
M  END
>  <Molecule ChEMBL ID>
CHEMBL3678149

>  <Smiles>
Cc1c(C)n(Cc2cccc(O[C@@H](C)C(=O)O)c2)c2ccc(C(=O)N[C@@H](C)c3cccc(OC(C)C)c3)cc12

>  <IC50_nM>
59

>  <Assay Description>
Lanthascreen Competitive Binding Assay: The assay was performed according to manufacturer protocol. A mixture of 5 nM GST-PPARG-LBD, 5 nM Tb-GST-antibody, 5 nM Fluormone Pan- PPAR Green, and serial dilutions of the experimental compound, beginning at 10 ׬� downwards, was added to wells of black 384-well low- volume plates (Greiner) to a total volume of 18 xL. All dilutions were made in TR-FRET assay buffer C. DMSO at 2% final concentration was used as a no-ligand control. Experiment was performed in triplicate, and incubated for 2 hours in the dark prior to assay read in Perkin Elmer ViewLux ultra HTS microplate reader. FRET signal was measured by excitation at 340 nm and emission at 520 nm for fluorescein and 490 nm for terbium.

$$$$
CHEMBL212591
Actelion Java MolfileCreator 2.0

  0  0  0  0  0  0              0 V3000
M  V30 BEGIN CTAB
M  V30 COUNTS 33 35 0 0 0
M  V30 BEGIN ATOM
M  V30 1 O 8.6602 -4.5 0.0 0
M  V30 2 C 8.6602 -3.5 0.0 0
M  V30 3 O 9.5262 -3.0 0.0 0
M  V30 4 C 7.7942 -3.0 0.0 0
M  V30 5 C 7.7942 -2.0 0.0 0
M  V30 6 C 6.9282 -1.5 0.0 0
M  V30 7 C 6.9282 -0.5 0.0 0
M  V30 8 C 6.0621 -2.0 0.0 0
M  V30 9 C 6.0621 0.0 0.0 0
M  V30 10 C 7.7942 0.0 0.0 0
M  V30 11 C 5.1961 -1.5 0.0 0
M  V30 12 C 5.1961 -0.5 0.0 0
M  V30 13 O 4.3301 0.0 0.0 0
M  V30 14 C 3.4641 -0.5 0.0 0
M  V30 15 C 2.598 0.0 0.0 0
M  V30 16 C 1.732 -0.5 0.0 0 CFG=1
M  V30 17 O 0.866 0.0 0.0 0
M  V30 18 C 1.732 -1.5 0.0 0
M  V30 19 C 0.0 -0.5 0.0 0
M  V30 20 C -0.866 0.0 0.0 0
M  V30 21 C 0.0 -1.4999 0.0 0
M  V30 22 C -1.732 -0.4999 0.0 0
M  V30 23 C -0.866 1.0 0.0 0
M  V30 24 C -0.866 -1.9999 0.0 0
M  V30 25 C -1.732 -1.4999 0.0 0
M  V30 26 C -1.732 1.5 0.0 0
M  V30 27 C -2.598 -1.9999 0.0 0
M  V30 28 C -1.732 2.5 0.0 0
M  V30 29 C -2.598 1.0 0.0 0
M  V30 30 C -2.598 -2.9999 0.0 0
M  V30 31 C -2.598 3.0 0.0 0
M  V30 32 C -3.4641 1.5 0.0 0
M  V30 33 C -3.4641 2.5 0.0 0
M  V30 END ATOM
M  V30 BEGIN BOND
M  V30 1 2 1 2
M  V30 2 1 2 3
M  V30 3 1 2 4
M  V30 4 1 4 5
M  V30 5 1 5 6
M  V30 6 2 6 7
M  V30 7 1 6 8
M  V30 8 1 7 9
M  V30 9 1 7 10
M  V30 10 2 8 11
M  V30 11 2 9 12
M  V30 12 1 12 13
M  V30 13 1 13 14
M  V30 14 1 14 15
M  V30 15 1 15 16
M  V30 16 1 16 17
M  V30 17 1 16 18 CFG=3
M  V30 18 1 17 19
M  V30 19 2 19 20
M  V30 20 1 19 21
M  V30 21 1 20 22
M  V30 22 1 20 23
M  V30 23 2 21 24
M  V30 24 2 22 25
M  V30 25 1 23 26
M  V30 26 1 25 27
M  V30 27 2 26 28
M  V30 28 1 26 29
M  V30 29 1 27 30
M  V30 30 1 28 31
M  V30 31 2 29 32
M  V30 32 2 31 33
M  V30 33 1 11 12
M  V30 34 1 24 25
M  V30 35 1 32 33
M  V30 END BOND
M  V30 BEGIN COLLECTION
M  V30 MDLV30/STERAC1 ATOMS=(1 16)
M  V30 END COLLECTION
M  V30 END CTAB
M  END
>  <Molecule ChEMBL ID>
CHEMBL212591

>  <Smiles>
CCc1ccc(OC(C)CCOc2ccc(CCC(=O)O)c(C)c2)c(Cc2ccccc2)c1

>  <IC50_nM>
59

>  <Assay Description>
Displacement of [3H]2-methyl-2-(4-{3-[propyl-(5-pyridin-2-yl-thiophene-2-sulfonyl)-amino]-propyl}-phenoxy)-propionic acid from human PPARgamma by SPA

$$$$
CHEMBL3678118
Actelion Java MolfileCreator 2.0

  0  0  0  0  0  0              0 V3000
M  V30 BEGIN CTAB
M  V30 COUNTS 38 42 0 0 0
M  V30 BEGIN ATOM
M  V30 1 O 16.6278 2.2222 0.0 0
M  V30 2 C 16.1642 0.7957 0.0 0
M  V30 3 N 17.1679 -0.319 0.0 0
M  V30 4 C 14.697 0.4838 0.0 0
M  V30 5 C 16.7044 -1.7455 0.0 0 CFG=2
M  V30 6 C 14.2335 -0.9427 0.0 0
M  V30 7 C 13.6933 1.5985 0.0 0
M  V30 8 C 17.7081 -2.8603 0.0 0
M  V30 9 C 15.2372 -2.0574 0.0 0
M  V30 10 C 12.7663 -1.2546 0.0 0
M  V30 11 C 12.2261 1.2866 0.0 0
M  V30 12 C 19.1753 -2.5484 0.0 0
M  V30 13 C 17.2446 -4.2868 0.0 0
M  V30 14 C 11.7626 -0.1398 0.0 0
M  V30 15 C 12.0163 -2.5536 0.0 0
M  V30 16 C 20.179 -3.6631 0.0 0
M  V30 17 C 18.2483 -5.4016 0.0 0
M  V30 18 N 10.3923 -0.75 0.0 0
M  V30 19 C 10.549 -2.2417 0.0 0
M  V30 20 C 12.6264 -3.9239 0.0 0
M  V30 21 C 19.7155 -5.0897 0.0 0
M  V30 22 C 21.6462 -3.3512 0.0 0
M  V30 23 C 9.0932 0.0 0.0 0
M  V30 24 C 9.4343 -3.2454 0.0 0
M  V30 25 C 22.761 -2.3475 0.0 0
M  V30 26 C 23.0728 -3.8148 0.0 0
M  V30 27 C 7.7942 -0.75 0.0 0
M  V30 28 C 6.4951 0.0 0.0 0
M  V30 29 C 7.7942 -2.25 0.0 0
M  V30 30 C 5.1961 -0.75 0.0 0
M  V30 31 C 6.4951 -3.0 0.0 0
M  V30 32 O 3.8971 0.0 0.0 0
M  V30 33 C 5.1961 -2.25 0.0 0
M  V30 34 C 2.598 -0.75 0.0 0 CFG=2
M  V30 35 C 1.299 0.0 0.0 0
M  V30 36 C 2.598 -2.25 0.0 0
M  V30 37 O 1.299 1.5 0.0 0
M  V30 38 O 0.0 -0.75 0.0 0
M  V30 END ATOM
M  V30 BEGIN BOND
M  V30 1 2 1 2
M  V30 2 1 2 3
M  V30 3 1 2 4
M  V30 4 1 3 5
M  V30 5 2 4 6
M  V30 6 1 4 7
M  V30 7 1 5 8
M  V30 8 1 5 9 CFG=3
M  V30 9 1 6 10
M  V30 10 2 7 11
M  V30 11 2 8 12
M  V30 12 1 8 13
M  V30 13 2 10 14
M  V30 14 1 10 15
M  V30 15 1 12 16
M  V30 16 2 13 17
M  V30 17 1 14 18
M  V30 18 2 15 19
M  V30 19 1 15 20
M  V30 20 2 16 21
M  V30 21 1 16 22
M  V30 22 1 18 23
M  V30 23 1 19 24
M  V30 24 1 22 25
M  V30 25 1 22 26
M  V30 26 1 23 27
M  V30 27 2 27 28
M  V30 28 1 27 29
M  V30 29 1 28 30
M  V30 30 2 29 31
M  V30 31 1 30 32
M  V30 32 2 30 33
M  V30 33 1 32 34
M  V30 34 1 34 35
M  V30 35 1 34 36 CFG=1
M  V30 36 2 35 37
M  V30 37 1 35 38
M  V30 38 1 11 14
M  V30 39 1 17 21
M  V30 40 1 18 19
M  V30 41 1 25 26
M  V30 42 1 31 33
M  V30 END BOND
M  V30 BEGIN COLLECTION
M  V30 MDLV30/STEABS ATOMS=(2 5 34)
M  V30 END COLLECTION
M  V30 END CTAB
M  END
>  <Molecule ChEMBL ID>
CHEMBL3678118

>  <Smiles>
Cc1c(C)n(Cc2cccc(O[C@@H](C)C(=O)O)c2)c2ccc(C(=O)N[C@@H](C)c3cccc(C4CC4)c3)cc12

>  <IC50_nM>
59

>  <Assay Description>
Lanthascreen Competitive Binding Assay: The assay was performed according to manufacturer protocol. A mixture of 5 nM GST-PPARG-LBD, 5 nM Tb-GST-antibody, 5 nM Fluormone Pan- PPAR Green, and serial dilutions of the experimental compound, beginning at 10 ׬� downwards, was added to wells of black 384-well low- volume plates (Greiner) to a total volume of 18 xL. All dilutions were made in TR-FRET assay buffer C. DMSO at 2% final concentration was used as a no-ligand control. Experiment was performed in triplicate, and incubated for 2 hours in the dark prior to assay read in Perkin Elmer ViewLux ultra HTS microplate reader. FRET signal was measured by excitation at 340 nm and emission at 520 nm for fluorescein and 490 nm for terbium.

$$$$
CHEMBL1783045
Actelion Java MolfileCreator 2.0

  0  0  0  0  0  0              0 V3000
M  V30 BEGIN CTAB
M  V30 COUNTS 34 37 0 0 0
M  V30 BEGIN ATOM
M  V30 1 S 8.7077 -0.4067 0.0 0
M  V30 2 C 9.3769 0.3364 0.0 0
M  V30 3 C 7.7942 0.0 0.0 0 CFG=2
M  V30 4 O 10.3714 0.2318 0.0 0
M  V30 5 N 8.8769 1.2024 0.0 0
M  V30 6 C 6.9282 -0.5 0.0 0
M  V30 7 C 7.8987 0.9945 0.0 0
M  V30 8 C 6.0621 0.0 0.0 0
M  V30 9 C 6.9282 -1.5 0.0 0
M  V30 10 O 7.1556 1.6636 0.0 0
M  V30 11 C 5.1961 -0.5 0.0 0
M  V30 12 C 6.0621 -2.0 0.0 0
M  V30 13 O 4.3301 0.0 0.0 0
M  V30 14 C 5.1961 -1.5 0.0 0
M  V30 15 C 3.4641 -0.5 0.0 0
M  V30 16 C 2.598 0.0 0.0 0
M  V30 17 C 1.732 -0.5 0.0 0
M  V30 18 O 0.866 0.0 0.0 0
M  V30 19 C 0.0 -0.5 0.0 0
M  V30 20 C -0.866 0.0 0.0 0
M  V30 21 C 0.0 -1.4999 0.0 0
M  V30 22 C -1.732 -0.4999 0.0 0
M  V30 23 C -0.866 1.0 0.0 0
M  V30 24 C -0.866 -1.9999 0.0 0
M  V30 25 C -1.732 -1.4999 0.0 0
M  V30 26 C 0.0 1.5 0.0 0
M  V30 27 C -2.598 -1.9999 0.0 0
M  V30 28 C 0.0 2.5 0.0 0
M  V30 29 C -2.598 -2.9999 0.0 0
M  V30 30 C -3.4641 -3.4999 0.0 0
M  V30 31 C -1.732 -3.4999 0.0 0
M  V30 32 C -3.4641 -4.4999 0.0 0
M  V30 33 C -1.732 -4.4999 0.0 0
M  V30 34 C -2.598 -4.9999 0.0 0
M  V30 END ATOM
M  V30 BEGIN BOND
M  V30 1 1 1 2
M  V30 2 1 1 3
M  V30 3 2 2 4
M  V30 4 1 2 5
M  V30 5 1 3 6 CFG=3
M  V30 6 1 3 7
M  V30 7 2 6 8
M  V30 8 1 6 9
M  V30 9 2 7 10
M  V30 10 1 8 11
M  V30 11 2 9 12
M  V30 12 1 11 13
M  V30 13 2 11 14
M  V30 14 1 13 15
M  V30 15 1 15 16
M  V30 16 1 16 17
M  V30 17 1 17 18
M  V30 18 1 18 19
M  V30 19 2 19 20
M  V30 20 1 19 21
M  V30 21 1 20 22
M  V30 22 1 20 23
M  V30 23 2 21 24
M  V30 24 2 22 25
M  V30 25 1 23 26
M  V30 26 1 25 27
M  V30 27 1 26 28
M  V30 28 1 27 29
M  V30 29 1 29 30
M  V30 30 1 29 31
M  V30 31 1 30 32
M  V30 32 1 31 33
M  V30 33 1 32 34
M  V30 34 1 5 7
M  V30 35 1 12 14
M  V30 36 1 24 25
M  V30 37 1 33 34
M  V30 END BOND
M  V30 BEGIN COLLECTION
M  V30 MDLV30/STEABS ATOMS=(1 3)
M  V30 END COLLECTION
M  V30 END CTAB
M  END
>  <Molecule ChEMBL ID>
CHEMBL1783045

>  <Smiles>
CCCc1cc(CC2CCCCC2)ccc1OCCCOc1cccc([C@H]2SC(=O)NC2=O)c1

>  <IC50_nM>
59

>  <Assay Description>
Displacement of radio-labeled full agonist from PPARgamma receptor

$$$$
CHEMBL2036997
Actelion Java MolfileCreator 2.0

  0  0  0  0  0  0              0 V3000
M  V30 BEGIN CTAB
M  V30 COUNTS 33 35 0 0 0
M  V30 BEGIN ATOM
M  V30 1 O 8.6602 -4.5 0.0 0
M  V30 2 C 8.6602 -3.5 0.0 0
M  V30 3 O 9.5262 -3.0 0.0 0
M  V30 4 C 7.7942 -3.0 0.0 0
M  V30 5 C 7.7942 -2.0 0.0 0
M  V30 6 C 6.9282 -1.5 0.0 0
M  V30 7 C 6.9282 -0.5 0.0 0
M  V30 8 C 6.0621 -2.0 0.0 0
M  V30 9 C 6.0621 0.0 0.0 0
M  V30 10 C 7.7942 0.0 0.0 0
M  V30 11 C 5.1961 -1.5 0.0 0
M  V30 12 C 5.1961 -0.5 0.0 0
M  V30 13 O 4.3301 0.0 0.0 0
M  V30 14 C 3.4641 -0.5 0.0 0
M  V30 15 C 2.598 0.0 0.0 0
M  V30 16 C 1.732 -0.5 0.0 0 CFG=2
M  V30 17 O 0.866 0.0 0.0 0
M  V30 18 C 1.732 -1.5 0.0 0
M  V30 19 C 0.0 -0.5 0.0 0
M  V30 20 C -0.866 0.0 0.0 0
M  V30 21 C 0.0 -1.4999 0.0 0
M  V30 22 C -1.732 -0.4999 0.0 0
M  V30 23 C -0.866 1.0 0.0 0
M  V30 24 C -0.866 -1.9999 0.0 0
M  V30 25 C -1.732 -1.4999 0.0 0
M  V30 26 C -1.732 1.5 0.0 0
M  V30 27 C -2.598 -1.9999 0.0 0
M  V30 28 C -1.732 2.5 0.0 0
M  V30 29 C -2.598 1.0 0.0 0
M  V30 30 C -2.598 -2.9999 0.0 0
M  V30 31 C -2.598 3.0 0.0 0
M  V30 32 C -3.4641 1.5 0.0 0
M  V30 33 C -3.4641 2.5 0.0 0
M  V30 END ATOM
M  V30 BEGIN BOND
M  V30 1 2 1 2
M  V30 2 1 2 3
M  V30 3 1 2 4
M  V30 4 1 4 5
M  V30 5 1 5 6
M  V30 6 2 6 7
M  V30 7 1 6 8
M  V30 8 1 7 9
M  V30 9 1 7 10
M  V30 10 2 8 11
M  V30 11 2 9 12
M  V30 12 1 12 13
M  V30 13 1 13 14
M  V30 14 1 14 15
M  V30 15 1 15 16
M  V30 16 1 16 17
M  V30 17 1 16 18 CFG=1
M  V30 18 1 17 19
M  V30 19 2 19 20
M  V30 20 1 19 21
M  V30 21 1 20 22
M  V30 22 1 20 23
M  V30 23 2 21 24
M  V30 24 2 22 25
M  V30 25 1 23 26
M  V30 26 1 25 27
M  V30 27 2 26 28
M  V30 28 1 26 29
M  V30 29 1 27 30
M  V30 30 1 28 31
M  V30 31 2 29 32
M  V30 32 2 31 33
M  V30 33 1 11 12
M  V30 34 1 24 25
M  V30 35 1 32 33
M  V30 END BOND
M  V30 BEGIN COLLECTION
M  V30 MDLV30/STEABS ATOMS=(1 16)
M  V30 END COLLECTION
M  V30 END CTAB
M  END
>  <Molecule ChEMBL ID>
CHEMBL2036997

>  <Smiles>
CCc1ccc(O[C@H](C)CCOc2ccc(CCC(=O)O)c(C)c2)c(Cc2ccccc2)c1

>  <IC50_nM>
59.02

>  <Assay Description>
Agonist activity at PPARgamma

$$$$
CHEMBL121106
Actelion Java MolfileCreator 2.0

  0  0  0  0  0  0              0 V3000
M  V30 BEGIN CTAB
M  V30 COUNTS 25 27 0 0 0
M  V30 BEGIN ATOM
M  V30 1 S 7.8987 0.0054 0.0 0
M  V30 2 C 8.8769 -0.2024 0.0 0
M  V30 3 C 7.7942 0.9999 0.0 0 CFG=2
M  V30 4 O 9.2836 -1.1159 0.0 0
M  V30 5 N 9.3769 0.6635 0.0 0
M  V30 6 C 8.7077 1.4067 0.0 0
M  V30 7 C 6.9282 1.4999 0.0 0
M  V30 8 O 8.9156 2.3848 0.0 0
M  V30 9 C 6.0621 0.9999 0.0 0
M  V30 10 C 5.1961 1.4999 0.0 0
M  V30 11 C 6.0621 0.0 0.0 0
M  V30 12 C 4.3301 0.9999 0.0 0
M  V30 13 C 5.1961 -0.5 0.0 0
M  V30 14 C 4.3301 0.0 0.0 0
M  V30 15 O 3.4641 -0.5 0.0 0
M  V30 16 C 2.598 0.0 0.0 0
M  V30 17 C 1.732 -0.5 0.0 0
M  V30 18 N 0.866 0.0 0.0 0
M  V30 19 C 0.866 1.0 0.0 0
M  V30 20 C 0.0 -0.5 0.0 0
M  V30 21 N 1.732 1.4999 0.0 0
M  V30 22 C 0.0 1.4999 0.0 0
M  V30 23 C 1.732 2.5 0.0 0
M  V30 24 C 0.0 2.5 0.0 0
M  V30 25 C 0.866 3.0 0.0 0
M  V30 END ATOM
M  V30 BEGIN BOND
M  V30 1 1 1 2
M  V30 2 1 1 3
M  V30 3 2 2 4
M  V30 4 1 2 5
M  V30 5 1 3 6
M  V30 6 1 3 7 CFG=1
M  V30 7 2 6 8
M  V30 8 1 7 9
M  V30 9 2 9 10
M  V30 10 1 9 11
M  V30 11 1 10 12
M  V30 12 2 11 13
M  V30 13 2 12 14
M  V30 14 1 14 15
M  V30 15 1 15 16
M  V30 16 1 16 17
M  V30 17 1 17 18
M  V30 18 1 18 19
M  V30 19 1 18 20
M  V30 20 2 19 21
M  V30 21 1 19 22
M  V30 22 1 21 23
M  V30 23 2 22 24
M  V30 24 2 23 25
M  V30 25 1 5 6
M  V30 26 1 13 14
M  V30 27 1 24 25
M  V30 END BOND
M  V30 BEGIN COLLECTION
M  V30 MDLV30/STEABS ATOMS=(1 3)
M  V30 END COLLECTION
M  V30 END CTAB
M  END
>  <Molecule ChEMBL ID>
CHEMBL121106

>  <Smiles>
CN(CCOc1ccc(C[C@@H]2SC(=O)NC2=O)cc1)c1ccccn1

>  <IC50_nM>
60

>  <Assay Description>
Final binding affinity against PPAR-gamma receptor

$$$$
CHEMBL197636
Actelion Java MolfileCreator 2.0

  0  0  0  0  0  0              0 V3000
M  V30 BEGIN CTAB
M  V30 COUNTS 32 35 0 0 0
M  V30 BEGIN ATOM
M  V30 1 F 3.8301 0.866 0.0 0
M  V30 2 C 4.3301 0.0 0.0 0
M  V30 3 F 5.1961 0.4999 0.0 0
M  V30 4 F 4.8301 -0.866 0.0 0
M  V30 5 C 3.4641 -0.5 0.0 0
M  V30 6 C 2.598 0.0 0.0 0
M  V30 7 C 3.4641 -1.4999 0.0 0
M  V30 8 C 1.732 -0.5 0.0 0
M  V30 9 C 2.598 -2.0 0.0 0
M  V30 10 O 0.866 0.0 0.0 0
M  V30 11 C 1.732 -1.5 0.0 0
M  V30 12 C 0.0 -0.5 0.0 0
M  V30 13 C -0.9135 -0.0932 0.0 0
M  V30 14 C -0.1045 -1.4945 0.0 0
M  V30 15 N -1.5826 -0.8364 0.0 0
M  V30 16 C -1.1214 0.8848 0.0 0
M  V30 17 C -1.0826 -1.7024 0.0 0
M  V30 18 C 0.5646 -2.2376 0.0 0
M  V30 19 C -2.5771 -0.7318 0.0 0
M  V30 20 O -0.3783 1.554 0.0 0
M  V30 21 O -2.0725 1.1939 0.0 0
M  V30 22 C -1.3916 -2.6534 0.0 0
M  V30 23 C 0.2555 -3.1887 0.0 0
M  V30 24 C -2.9839 0.1816 0.0 0
M  V30 25 C -3.1649 -1.5408 0.0 0
M  V30 26 C -0.7225 -3.3966 0.0 0
M  V30 27 C -3.9784 0.2861 0.0 0
M  V30 28 C -4.1595 -1.4363 0.0 0
M  V30 29 C -4.5662 -0.5228 0.0 0
M  V30 30 C -4.3851 1.1997 0.0 0
M  V30 31 C -3.7974 2.0087 0.0 0
M  V30 32 C -5.3797 1.3042 0.0 0
M  V30 END ATOM
M  V30 BEGIN BOND
M  V30 1 1 1 2
M  V30 2 1 2 3
M  V30 3 1 2 4
M  V30 4 1 2 5
M  V30 5 2 5 6
M  V30 6 1 5 7
M  V30 7 1 6 8
M  V30 8 2 7 9
M  V30 9 1 8 10
M  V30 10 2 8 11
M  V30 11 1 10 12
M  V30 12 2 12 13
M  V30 13 1 12 14
M  V30 14 1 13 15
M  V30 15 1 13 16
M  V30 16 2 14 17
M  V30 17 1 14 18
M  V30 18 1 15 19
M  V30 19 2 16 20
M  V30 20 1 16 21
M  V30 21 1 17 22
M  V30 22 2 18 23
M  V30 23 2 19 24
M  V30 24 1 19 25
M  V30 25 2 22 26
M  V30 26 1 24 27
M  V30 27 2 25 28
M  V30 28 2 27 29
M  V30 29 1 27 30
M  V30 30 1 30 31
M  V30 31 1 30 32
M  V30 32 1 9 11
M  V30 33 1 15 17
M  V30 34 1 23 26
M  V30 35 1 28 29
M  V30 END BOND
M  V30 END CTAB
M  END
>  <Molecule ChEMBL ID>
CHEMBL197636

>  <Smiles>
CC(C)c1cccc(-n2c(C(=O)O)c(Oc3cccc(C(F)(F)F)c3)c3ccccc32)c1

>  <IC50_nM>
60

>  <Assay Description>
Inhibitory concentration against human peroxisome proliferator activated receptor gamma in SPA assay

$$$$
CHEMBL241472
Actelion Java MolfileCreator 2.0

  0  0  0  0  0  0              0 V3000
M  V30 BEGIN CTAB
M  V30 COUNTS 32 34 0 0 0
M  V30 BEGIN ATOM
M  V30 1 O 8.6602 -4.5 0.0 0
M  V30 2 C 8.6602 -3.5 0.0 0
M  V30 3 O 9.5262 -3.0 0.0 0
M  V30 4 C 7.7942 -3.0 0.0 0
M  V30 5 C 7.7942 -2.0 0.0 0
M  V30 6 C 6.9282 -1.5 0.0 0
M  V30 7 C 6.9282 -0.5 0.0 0
M  V30 8 C 6.0621 -2.0 0.0 0
M  V30 9 C 6.0621 0.0 0.0 0
M  V30 10 C 7.7942 0.0 0.0 0
M  V30 11 C 5.1961 -1.5 0.0 0
M  V30 12 C 5.1961 -0.5 0.0 0
M  V30 13 O 4.3301 0.0 0.0 0
M  V30 14 C 3.4641 -0.5 0.0 0
M  V30 15 C 2.598 0.0 0.0 0
M  V30 16 C 1.732 -0.5 0.0 0 CFG=2
M  V30 17 O 0.866 0.0 0.0 0
M  V30 18 C 1.732 -1.5 0.0 0
M  V30 19 C 0.0 -0.5 0.0 0
M  V30 20 C -0.866 0.0 0.0 0
M  V30 21 C 0.0 -1.4999 0.0 0
M  V30 22 C -0.866 1.0 0.0 0
M  V30 23 C -1.732 -0.4999 0.0 0
M  V30 24 C -0.866 -1.9999 0.0 0
M  V30 25 C 0.0 1.4999 0.0 0
M  V30 26 C -1.732 1.5 0.0 0
M  V30 27 C -1.732 -1.4999 0.0 0
M  V30 28 N 0.0 2.4999 0.0 0
M  V30 29 C -1.732 2.5 0.0 0
M  V30 30 C -2.598 -1.9999 0.0 0
M  V30 31 C -0.866 3.0 0.0 0
M  V30 32 C -2.598 -2.9999 0.0 0
M  V30 END ATOM
M  V30 BEGIN BOND
M  V30 1 2 1 2
M  V30 2 1 2 3
M  V30 3 1 2 4
M  V30 4 1 4 5
M  V30 5 1 5 6
M  V30 6 2 6 7
M  V30 7 1 6 8
M  V30 8 1 7 9
M  V30 9 1 7 10
M  V30 10 2 8 11
M  V30 11 2 9 12
M  V30 12 1 12 13
M  V30 13 1 13 14
M  V30 14 1 14 15
M  V30 15 1 15 16
M  V30 16 1 16 17
M  V30 17 1 16 18 CFG=1
M  V30 18 1 17 19
M  V30 19 2 19 20
M  V30 20 1 19 21
M  V30 21 1 20 22
M  V30 22 1 20 23
M  V30 23 2 21 24
M  V30 24 2 22 25
M  V30 25 1 22 26
M  V30 26 2 23 27
M  V30 27 1 25 28
M  V30 28 2 26 29
M  V30 29 1 27 30
M  V30 30 2 28 31
M  V30 31 1 30 32
M  V30 32 1 11 12
M  V30 33 1 24 27
M  V30 34 1 29 31
M  V30 END BOND
M  V30 BEGIN COLLECTION
M  V30 MDLV30/STEABS ATOMS=(1 16)
M  V30 END COLLECTION
M  V30 END CTAB
M  END
>  <Molecule ChEMBL ID>
CHEMBL241472

>  <Smiles>
CCc1ccc(O[C@H](C)CCOc2ccc(CCC(=O)O)c(C)c2)c(-c2cccnc2)c1

>  <IC50_nM>
60

>  <Assay Description>
Displacement of [3H]2-methyl-2-(4-{3-[porpyl-(5-pyridin-2yl-thiophene-2-sulfonyl)-amino]-propyl}-phenoxy)-propionic acid from human PPARgamma

$$$$
CHEMBL267881
Actelion Java MolfileCreator 2.0

  0  0  0  0  0  0              0 V3000
M  V30 BEGIN CTAB
M  V30 COUNTS 44 48 0 0 0
M  V30 BEGIN ATOM
M  V30 1 S 2.598 2.25 0.0 0
M  V30 2 O 4.098 2.25 0.0 0
M  V30 3 O 3.348 0.9509 0.0 0
M  V30 4 N 1.299 1.5 0.0 0
M  V30 5 C 2.598 3.75 0.0 0
M  V30 6 C 1.299 0.0 0.0 0
M  V30 7 C 1.299 4.5 0.0 0
M  V30 8 C 3.8971 4.5 0.0 0
M  V30 9 O 2.598 -0.75 0.0 0
M  V30 10 C 0.0 -0.75 0.0 0
M  V30 11 C 1.299 6.0 0.0 0
M  V30 12 C 3.8971 6.0 0.0 0
M  V30 13 N -1.3703 -0.1398 0.0 0
M  V30 14 C -0.1567 -2.2417 0.0 0
M  V30 15 C 2.598 6.75 0.0 0
M  V30 16 C 0.0 6.75 0.0 0
M  V30 17 C -2.374 -1.2546 0.0 0
M  V30 18 C -1.6821 1.3273 0.0 0
M  V30 19 C 0.9579 -3.2454 0.0 0
M  V30 20 C -1.624 -2.5536 0.0 0
M  V30 21 F 0.75 8.049 0.0 0
M  V30 22 F -1.299 7.5 0.0 0
M  V30 23 F -0.75 5.4509 0.0 0
M  V30 24 C -3.874 -1.2546 0.0 0
M  V30 25 C -3.1087 1.7908 0.0 0
M  V30 26 C 0.646 -4.7127 0.0 0
M  V30 27 C 2.3845 -2.7819 0.0 0
M  V30 28 C -2.374 -3.8526 0.0 0
M  V30 29 C -4.624 -2.5536 0.0 0
M  V30 30 C -3.4206 3.258 0.0 0
M  V30 31 C -4.2234 0.7871 0.0 0
M  V30 32 C 1.7607 -5.7164 0.0 0
M  V30 33 C 3.4992 -3.7856 0.0 0
M  V30 34 C -3.874 -3.8526 0.0 0
M  V30 35 C -4.8472 3.7216 0.0 0
M  V30 36 C -5.65 1.2506 0.0 0
M  V30 37 C 3.1873 -5.2528 0.0 0
M  V30 38 C -5.9619 2.7179 0.0 0
M  V30 39 C -5.159 5.1888 0.0 0
M  V30 40 O 4.302 -6.2565 0.0 0
M  V30 41 F -6.6263 4.8769 0.0 0
M  V30 42 F -5.4709 6.656 0.0 0
M  V30 43 F -3.6918 5.5006 0.0 0
M  V30 44 C 5.7286 -5.793 0.0 0
M  V30 END ATOM
M  V30 BEGIN BOND
M  V30 1 2 1 2
M  V30 2 2 1 3
M  V30 3 1 1 4
M  V30 4 1 1 5
M  V30 5 1 4 6
M  V30 6 2 5 7
M  V30 7 1 5 8
M  V30 8 2 6 9
M  V30 9 1 6 10
M  V30 10 1 7 11
M  V30 11 2 8 12
M  V30 12 1 10 13
M  V30 13 2 10 14
M  V30 14 2 11 15
M  V30 15 1 11 16
M  V30 16 1 13 17
M  V30 17 1 13 18
M  V30 18 1 14 19
M  V30 19 1 14 20
M  V30 20 1 16 21
M  V30 21 1 16 22
M  V30 22 1 16 23
M  V30 23 1 17 24
M  V30 24 1 18 25
M  V30 25 2 19 26
M  V30 26 1 19 27
M  V30 27 1 20 28
M  V30 28 2 24 29
M  V30 29 2 25 30
M  V30 30 1 25 31
M  V30 31 1 26 32
M  V30 32 2 27 33
M  V30 33 2 28 34
M  V30 34 1 30 35
M  V30 35 2 31 36
M  V30 36 2 32 37
M  V30 37 2 35 38
M  V30 38 1 35 39
M  V30 39 1 37 40
M  V30 40 1 39 41
M  V30 41 1 39 42
M  V30 42 1 39 43
M  V30 43 1 40 44
M  V30 44 1 12 15
M  V30 45 2 17 20
M  V30 46 1 29 34
M  V30 47 1 33 37
M  V30 48 1 36 38
M  V30 END BOND
M  V30 END CTAB
M  END
>  <Molecule ChEMBL ID>
CHEMBL267881

>  <Smiles>
COc1ccc(-c2c(C(=O)NS(=O)(=O)c3cccc(C(F)(F)F)c3)n(Cc3cccc(C(F)(F)F)c3)c3ccccc23)cc1

>  <IC50_nM>
60

>  <Assay Description>
Displacement of Fluormone from PPAR gamma

$$$$
CHEMBL3678117
Actelion Java MolfileCreator 2.0

  0  0  0  0  0  0              0 V3000
M  V30 BEGIN CTAB
M  V30 COUNTS 39 42 0 0 0
M  V30 BEGIN ATOM
M  V30 1 O 17.1679 -0.319 0.0 0
M  V30 2 C 16.1642 0.7957 0.0 0
M  V30 3 N 16.6278 2.2222 0.0 0
M  V30 4 C 14.697 0.4838 0.0 0
M  V30 5 C 15.6241 3.337 0.0 0 CFG=2
M  V30 6 C 14.2335 -0.9427 0.0 0
M  V30 7 C 13.6933 1.5985 0.0 0
M  V30 8 C 16.0876 4.7635 0.0 0
M  V30 9 C 14.1568 3.0251 0.0 0
M  V30 10 C 12.7663 -1.2546 0.0 0
M  V30 11 C 12.2261 1.2866 0.0 0
M  V30 12 C 17.5548 5.0754 0.0 0
M  V30 13 C 15.0839 5.8783 0.0 0
M  V30 14 C 11.7626 -0.1398 0.0 0
M  V30 15 C 12.0163 -2.5536 0.0 0
M  V30 16 C 18.0183 6.502 0.0 0
M  V30 17 C 15.5474 7.3048 0.0 0
M  V30 18 N 10.3923 -0.75 0.0 0
M  V30 19 C 10.549 -2.2417 0.0 0
M  V30 20 C 12.6264 -3.9239 0.0 0
M  V30 21 C 17.0146 7.6167 0.0 0
M  V30 22 C 9.0932 0.0 0.0 0
M  V30 23 C 9.4343 -3.2454 0.0 0
M  V30 24 C 17.4782 9.0433 0.0 0
M  V30 25 C 7.7942 -0.75 0.0 0
M  V30 26 C 16.0516 9.5068 0.0 0
M  V30 27 C 17.9417 10.4699 0.0 0
M  V30 28 C 18.9048 8.5798 0.0 0
M  V30 29 C 6.4951 0.0 0.0 0
M  V30 30 C 7.7942 -2.25 0.0 0
M  V30 31 C 5.1961 -0.75 0.0 0
M  V30 32 C 6.4951 -3.0 0.0 0
M  V30 33 O 3.8971 0.0 0.0 0
M  V30 34 C 5.1961 -2.25 0.0 0
M  V30 35 C 2.598 -0.75 0.0 0 CFG=2
M  V30 36 C 1.299 0.0 0.0 0
M  V30 37 C 2.598 -2.25 0.0 0
M  V30 38 O 1.299 1.5 0.0 0
M  V30 39 O 0.0 -0.75 0.0 0
M  V30 END ATOM
M  V30 BEGIN BOND
M  V30 1 2 1 2
M  V30 2 1 2 3
M  V30 3 1 2 4
M  V30 4 1 3 5
M  V30 5 2 4 6
M  V30 6 1 4 7
M  V30 7 1 5 8
M  V30 8 1 5 9 CFG=1
M  V30 9 1 6 10
M  V30 10 2 7 11
M  V30 11 2 8 12
M  V30 12 1 8 13
M  V30 13 2 10 14
M  V30 14 1 10 15
M  V30 15 1 12 16
M  V30 16 2 13 17
M  V30 17 1 14 18
M  V30 18 2 15 19
M  V30 19 1 15 20
M  V30 20 2 16 21
M  V30 21 1 18 22
M  V30 22 1 19 23
M  V30 23 1 21 24
M  V30 24 1 22 25
M  V30 25 1 24 26
M  V30 26 1 24 27
M  V30 27 1 24 28
M  V30 28 2 25 29
M  V30 29 1 25 30
M  V30 30 1 29 31
M  V30 31 2 30 32
M  V30 32 1 31 33
M  V30 33 2 31 34
M  V30 34 1 33 35
M  V30 35 1 35 36
M  V30 36 1 35 37 CFG=1
M  V30 37 2 36 38
M  V30 38 1 36 39
M  V30 39 1 11 14
M  V30 40 1 17 21
M  V30 41 1 18 19
M  V30 42 1 32 34
M  V30 END BOND
M  V30 BEGIN COLLECTION
M  V30 MDLV30/STEABS ATOMS=(2 5 35)
M  V30 END COLLECTION
M  V30 END CTAB
M  END
>  <Molecule ChEMBL ID>
CHEMBL3678117

>  <Smiles>
Cc1c(C)n(Cc2cccc(O[C@@H](C)C(=O)O)c2)c2ccc(C(=O)N[C@@H](C)c3ccc(C(C)(C)C)cc3)cc12

>  <IC50_nM>
60

>  <Assay Description>
Lanthascreen Competitive Binding Assay: The assay was performed according to manufacturer protocol. A mixture of 5 nM GST-PPARG-LBD, 5 nM Tb-GST-antibody, 5 nM Fluormone Pan- PPAR Green, and serial dilutions of the experimental compound, beginning at 10 ׬� downwards, was added to wells of black 384-well low- volume plates (Greiner) to a total volume of 18 xL. All dilutions were made in TR-FRET assay buffer C. DMSO at 2% final concentration was used as a no-ligand control. Experiment was performed in triplicate, and incubated for 2 hours in the dark prior to assay read in Perkin Elmer ViewLux ultra HTS microplate reader. FRET signal was measured by excitation at 340 nm and emission at 520 nm for fluorescein and 490 nm for terbium.

$$$$
CHEMBL213361
Actelion Java MolfileCreator 2.0

  0  0  0  0  0  0              0 V3000
M  V30 BEGIN CTAB
M  V30 COUNTS 35 37 0 0 0
M  V30 BEGIN ATOM
M  V30 1 Cl 7.7942 -2.0 0.0 0
M  V30 2 C 6.9282 -1.5 0.0 0
M  V30 3 C 6.9282 -0.5 0.0 0
M  V30 4 C 6.0621 -2.0 0.0 0
M  V30 5 C 6.0621 0.0 0.0 0
M  V30 6 C 5.1961 -1.5 0.0 0
M  V30 7 O 6.0621 1.0 0.0 0
M  V30 8 C 5.1961 -0.5 0.0 0
M  V30 9 C 5.1961 1.5 0.0 0
M  V30 10 O 4.3301 0.0 0.0 0
M  V30 11 C 5.1961 2.5 0.0 0
M  V30 12 C 4.3301 1.0 0.0 0
M  V30 13 C 3.4641 -0.5 0.0 0 CFG=1
M  V30 14 C 4.3301 3.0 0.0 0
M  V30 15 C 3.4641 1.5 0.0 0
M  V30 16 C 2.598 0.0 0.0 0
M  V30 17 C 3.4641 -1.5 0.0 0
M  V30 18 C 3.4641 2.5 0.0 0
M  V30 19 C 1.732 -0.5 0.0 0
M  V30 20 O 0.866 0.0 0.0 0
M  V30 21 C 0.0 -0.5 0.0 0
M  V30 22 C -0.866 0.0 0.0 0
M  V30 23 C 0.0 -1.4999 0.0 0
M  V30 24 C -1.732 -0.4999 0.0 0
M  V30 25 C -0.866 -1.9999 0.0 0
M  V30 26 C -1.732 -1.4999 0.0 0
M  V30 27 C -2.598 0.0 0.0 0
M  V30 28 C -2.598 -1.9999 0.0 0
M  V30 29 F -3.098 -0.866 0.0 0
M  V30 30 F -3.4641 0.5 0.0 0
M  V30 31 F -2.098 0.866 0.0 0
M  V30 32 C -2.598 -2.9999 0.0 0
M  V30 33 C -3.4641 -3.4999 0.0 0
M  V30 34 O -4.3301 -2.9999 0.0 0
M  V30 35 O -3.4641 -4.4999 0.0 0
M  V30 END ATOM
M  V30 BEGIN BOND
M  V30 1 1 1 2
M  V30 2 2 2 3
M  V30 3 1 2 4
M  V30 4 1 3 5
M  V30 5 2 4 6
M  V30 6 1 5 7
M  V30 7 2 5 8
M  V30 8 1 7 9
M  V30 9 1 8 10
M  V30 10 2 9 11
M  V30 11 1 9 12
M  V30 12 1 10 13
M  V30 13 1 11 14
M  V30 14 2 12 15
M  V30 15 1 13 16
M  V30 16 1 13 17 CFG=3
M  V30 17 2 14 18
M  V30 18 1 16 19
M  V30 19 1 19 20
M  V30 20 1 20 21
M  V30 21 2 21 22
M  V30 22 1 21 23
M  V30 23 1 22 24
M  V30 24 2 23 25
M  V30 25 2 24 26
M  V30 26 1 24 27
M  V30 27 1 26 28
M  V30 28 1 27 29
M  V30 29 1 27 30
M  V30 30 1 27 31
M  V30 31 1 28 32
M  V30 32 1 32 33
M  V30 33 2 33 34
M  V30 34 1 33 35
M  V30 35 1 6 8
M  V30 36 1 15 18
M  V30 37 1 25 26
M  V30 END BOND
M  V30 BEGIN COLLECTION
M  V30 MDLV30/STEABS ATOMS=(1 13)
M  V30 END COLLECTION
M  V30 END CTAB
M  END
>  <Molecule ChEMBL ID>
CHEMBL213361

>  <Smiles>
C[C@H](CCOc1ccc(CCC(=O)O)c(C(F)(F)F)c1)Oc1ccc(Cl)cc1Oc1ccccc1

>  <IC50_nM>
60.95

>  <Assay Description>
Agonist activity at PPARgamma

$$$$
CHEMBL3678156
Actelion Java MolfileCreator 2.0

  0  0  0  0  0  0              0 V3000
M  V30 BEGIN CTAB
M  V30 COUNTS 41 44 0 0 0
M  V30 BEGIN ATOM
M  V30 1 O 17.1679 -0.319 0.0 0
M  V30 2 C 16.1642 0.7957 0.0 0
M  V30 3 N 16.6278 2.2222 0.0 0
M  V30 4 C 14.697 0.4838 0.0 0
M  V30 5 C 15.6241 3.337 0.0 0 CFG=2
M  V30 6 C 14.2335 -0.9427 0.0 0
M  V30 7 C 13.6933 1.5985 0.0 0
M  V30 8 C 16.0876 4.7635 0.0 0
M  V30 9 C 14.1568 3.0251 0.0 0
M  V30 10 C 12.7663 -1.2546 0.0 0
M  V30 11 C 12.2261 1.2866 0.0 0
M  V30 12 C 17.5548 5.0754 0.0 0
M  V30 13 C 15.0839 5.8783 0.0 0
M  V30 14 C 11.7626 -0.1398 0.0 0
M  V30 15 C 12.0163 -2.5536 0.0 0
M  V30 16 C 18.0183 6.502 0.0 0
M  V30 17 C 15.5474 7.3048 0.0 0
M  V30 18 N 10.3923 -0.75 0.0 0
M  V30 19 C 10.549 -2.2417 0.0 0
M  V30 20 C 12.6264 -3.9239 0.0 0
M  V30 21 C 17.0146 7.6167 0.0 0
M  V30 22 C 9.0932 0.0 0.0 0
M  V30 23 C 9.4343 -3.2454 0.0 0
M  V30 24 C 17.4782 9.0433 0.0 0
M  V30 25 C 7.7942 -0.75 0.0 0
M  V30 26 C 16.0516 9.5068 0.0 0
M  V30 27 C 17.9417 10.4699 0.0 0
M  V30 28 C 18.9048 8.5798 0.0 0
M  V30 29 C 6.4951 0.0 0.0 0
M  V30 30 C 7.7942 -2.2499 0.0 0
M  V30 31 C 5.1961 -0.75 0.0 0
M  V30 32 C 6.4951 -3.0 0.0 0
M  V30 33 O 3.8971 0.0 0.0 0
M  V30 34 C 5.1961 -2.2499 0.0 0
M  V30 35 C 2.598 -0.75 0.0 0 CFG=2
M  V30 36 O 3.8971 -3.0 0.0 0
M  V30 37 C 1.299 0.0 0.0 0
M  V30 38 C 2.598 -2.25 0.0 0
M  V30 39 C 3.8971 -4.5 0.0 0
M  V30 40 O 1.299 1.5 0.0 0
M  V30 41 O 0.0 -0.75 0.0 0
M  V30 END ATOM
M  V30 BEGIN BOND
M  V30 1 2 1 2
M  V30 2 1 2 3
M  V30 3 1 2 4
M  V30 4 1 3 5
M  V30 5 2 4 6
M  V30 6 1 4 7
M  V30 7 1 5 8
M  V30 8 1 5 9 CFG=1
M  V30 9 1 6 10
M  V30 10 2 7 11
M  V30 11 2 8 12
M  V30 12 1 8 13
M  V30 13 2 10 14
M  V30 14 1 10 15
M  V30 15 1 12 16
M  V30 16 2 13 17
M  V30 17 1 14 18
M  V30 18 2 15 19
M  V30 19 1 15 20
M  V30 20 2 16 21
M  V30 21 1 18 22
M  V30 22 1 19 23
M  V30 23 1 21 24
M  V30 24 1 22 25
M  V30 25 1 24 26
M  V30 26 1 24 27
M  V30 27 1 24 28
M  V30 28 2 25 29
M  V30 29 1 25 30
M  V30 30 1 29 31
M  V30 31 2 30 32
M  V30 32 1 31 33
M  V30 33 2 31 34
M  V30 34 1 33 35
M  V30 35 1 34 36
M  V30 36 1 35 37
M  V30 37 1 35 38 CFG=1
M  V30 38 1 36 39
M  V30 39 2 37 40
M  V30 40 1 37 41
M  V30 41 1 11 14
M  V30 42 1 17 21
M  V30 43 1 18 19
M  V30 44 1 32 34
M  V30 END BOND
M  V30 BEGIN COLLECTION
M  V30 MDLV30/STEABS ATOMS=(2 5 35)
M  V30 END COLLECTION
M  V30 END CTAB
M  END
>  <Molecule ChEMBL ID>
CHEMBL3678156

>  <Smiles>
COc1ccc(Cn2c(C)c(C)c3cc(C(=O)N[C@@H](C)c4ccc(C(C)(C)C)cc4)ccc32)cc1O[C@@H](C)C(=O)O

>  <IC50_nM>
61

>  <Assay Description>
Lanthascreen Competitive Binding Assay: The assay was performed according to manufacturer protocol. A mixture of 5 nM GST-PPARG-LBD, 5 nM Tb-GST-antibody, 5 nM Fluormone Pan- PPAR Green, and serial dilutions of the experimental compound, beginning at 10 ׬� downwards, was added to wells of black 384-well low- volume plates (Greiner) to a total volume of 18 xL. All dilutions were made in TR-FRET assay buffer C. DMSO at 2% final concentration was used as a no-ligand control. Experiment was performed in triplicate, and incubated for 2 hours in the dark prior to assay read in Perkin Elmer ViewLux ultra HTS microplate reader. FRET signal was measured by excitation at 340 nm and emission at 520 nm for fluorescein and 490 nm for terbium.

$$$$
CHEMBL3695877
Actelion Java MolfileCreator 2.0

  0  0  0  0  0  0              0 V3000
M  V30 BEGIN CTAB
M  V30 COUNTS 39 43 0 0 0
M  V30 BEGIN ATOM
M  V30 1 F 6.5621 -1.1339 0.0 0
M  V30 2 C 6.0621 -1.9999 0.0 0
M  V30 3 F 6.9282 -2.5 0.0 0
M  V30 4 F 5.5621 -2.866 0.0 0
M  V30 5 C 5.1961 -1.4999 0.0 0
M  V30 6 C 5.1961 -0.5 0.0 0
M  V30 7 C 4.3301 -1.9999 0.0 0
M  V30 8 C 4.3301 0.0 0.0 0
M  V30 9 C 3.4641 -1.5 0.0 0
M  V30 10 C 3.4641 -0.5 0.0 0
M  V30 11 C 2.598 0.0 0.0 0 CFG=1
M  V30 12 N 1.732 -0.5 0.0 0
M  V30 13 C 2.598 1.0 0.0 0
M  V30 14 C 0.866 0.0 0.0 0
M  V30 15 O 0.866 1.0 0.0 0
M  V30 16 C 0.0 -0.5 0.0 0
M  V30 17 C 0.0 -1.4999 0.0 0
M  V30 18 C -0.866 0.0 0.0 0
M  V30 19 C -0.866 -1.9999 0.0 0
M  V30 20 C -1.732 -0.4999 0.0 0
M  V30 21 C -1.732 -1.4999 0.0 0
M  V30 22 C -1.0739 -2.9781 0.0 0
M  V30 23 N -2.4751 -2.1691 0.0 0
M  V30 24 C -2.0684 -3.0826 0.0 0
M  V30 25 C -0.4048 -3.7212 0.0 0
M  V30 26 C -3.4533 -1.9612 0.0 0
M  V30 27 C -2.5684 -3.9487 0.0 0
M  V30 28 C -4.1224 -2.7043 0.0 0
M  V30 29 C -5.1006 -2.4964 0.0 0
M  V30 30 C -3.8134 -3.6554 0.0 0
M  V30 31 C -5.7697 -3.2395 0.0 0
M  V30 32 C -4.4825 -4.3985 0.0 0
M  V30 33 C -5.4607 -4.1906 0.0 0
M  V30 34 C -6.1298 -4.9337 0.0 0
M  V30 35 C -7.108 -4.7258 0.0 0
M  V30 36 C -5.8208 -5.8848 0.0 0
M  V30 37 C -7.7771 -5.469 0.0 0
M  V30 38 C -6.4899 -6.6279 0.0 0
M  V30 39 C -7.4681 -6.42 0.0 0
M  V30 END ATOM
M  V30 BEGIN BOND
M  V30 1 1 1 2
M  V30 2 1 2 3
M  V30 3 1 2 4
M  V30 4 1 2 5
M  V30 5 2 5 6
M  V30 6 1 5 7
M  V30 7 1 6 8
M  V30 8 2 7 9
M  V30 9 2 8 10
M  V30 10 1 10 11
M  V30 11 1 11 12
M  V30 12 1 11 13 CFG=1
M  V30 13 1 12 14
M  V30 14 2 14 15
M  V30 15 1 14 16
M  V30 16 2 16 17
M  V30 17 1 16 18
M  V30 18 1 17 19
M  V30 19 2 18 20
M  V30 20 2 19 21
M  V30 21 1 19 22
M  V30 22 1 21 23
M  V30 23 2 22 24
M  V30 24 1 22 25
M  V30 25 1 23 26
M  V30 26 1 24 27
M  V30 27 1 26 28
M  V30 28 2 28 29
M  V30 29 1 28 30
M  V30 30 1 29 31
M  V30 31 2 30 32
M  V30 32 2 31 33
M  V30 33 1 33 34
M  V30 34 2 34 35
M  V30 35 1 34 36
M  V30 36 1 35 37
M  V30 37 2 36 38
M  V30 38 2 37 39
M  V30 39 1 9 10
M  V30 40 1 20 21
M  V30 41 1 23 24
M  V30 42 1 32 33
M  V30 43 1 38 39
M  V30 END BOND
M  V30 BEGIN COLLECTION
M  V30 MDLV30/STEABS ATOMS=(1 11)
M  V30 END COLLECTION
M  V30 END CTAB
M  END
>  <Molecule ChEMBL ID>
CHEMBL3695877

>  <Smiles>
Cc1c(C)n(Cc2ccc(-c3ccccc3)cc2)c2ccc(C(=O)N[C@@H](C)c3ccc(C(F)(F)F)cc3)cc12

>  <IC50_nM>
61

>  <Assay Description>
Lanthascreen Competitive Binding Assay: The assay was performed according to manufacturer protocol. A mixture of nM GST-PPARG-LBD, 5 nM Tb-GST-antibody, 5 nM Fluormone Pan-PPAR Green, and serial dilutions of the experimental compound, beginning at 10 ׬M downwards, was added to wells of black 384-well low-volume plates (Greiner) to a total volume of 18 ׬L. All dilutions were made in TR-FRET assay buffer C. DMSO at 2% final concentration was used as a no-ligand control. Experiment was performed in triplicate, and incubated for 2 hours in the dark prior to assay read in Perkin Elmer ViewLux ultra HTS microplate reader. FRET signal was measured by excitation at 340 nm and emission at 520 nm for fluorescein and 490 nm for terbium. Fold change over DMSO was calculated using GraphPad Prism Software (La Jolla, Calif.) by calculating 520 nm/490 nm ratio. Graphs were plotted as fold change of FRET signal for compound treatment over DMSO-only control.

$$$$
CHEMBL213361
Actelion Java MolfileCreator 2.0

  0  0  0  0  0  0              0 V3000
M  V30 BEGIN CTAB
M  V30 COUNTS 35 37 0 0 0
M  V30 BEGIN ATOM
M  V30 1 Cl 7.7942 -2.0 0.0 0
M  V30 2 C 6.9282 -1.5 0.0 0
M  V30 3 C 6.9282 -0.5 0.0 0
M  V30 4 C 6.0621 -2.0 0.0 0
M  V30 5 C 6.0621 0.0 0.0 0
M  V30 6 C 5.1961 -1.5 0.0 0
M  V30 7 O 6.0621 1.0 0.0 0
M  V30 8 C 5.1961 -0.5 0.0 0
M  V30 9 C 5.1961 1.5 0.0 0
M  V30 10 O 4.3301 0.0 0.0 0
M  V30 11 C 5.1961 2.5 0.0 0
M  V30 12 C 4.3301 1.0 0.0 0
M  V30 13 C 3.4641 -0.5 0.0 0 CFG=1
M  V30 14 C 4.3301 3.0 0.0 0
M  V30 15 C 3.4641 1.5 0.0 0
M  V30 16 C 2.598 0.0 0.0 0
M  V30 17 C 3.4641 -1.5 0.0 0
M  V30 18 C 3.4641 2.5 0.0 0
M  V30 19 C 1.732 -0.5 0.0 0
M  V30 20 O 0.866 0.0 0.0 0
M  V30 21 C 0.0 -0.5 0.0 0
M  V30 22 C -0.866 0.0 0.0 0
M  V30 23 C 0.0 -1.4999 0.0 0
M  V30 24 C -1.732 -0.4999 0.0 0
M  V30 25 C -0.866 -1.9999 0.0 0
M  V30 26 C -1.732 -1.4999 0.0 0
M  V30 27 C -2.598 0.0 0.0 0
M  V30 28 C -2.598 -1.9999 0.0 0
M  V30 29 F -3.098 -0.866 0.0 0
M  V30 30 F -3.4641 0.5 0.0 0
M  V30 31 F -2.098 0.866 0.0 0
M  V30 32 C -2.598 -2.9999 0.0 0
M  V30 33 C -3.4641 -3.4999 0.0 0
M  V30 34 O -4.3301 -2.9999 0.0 0
M  V30 35 O -3.4641 -4.4999 0.0 0
M  V30 END ATOM
M  V30 BEGIN BOND
M  V30 1 1 1 2
M  V30 2 2 2 3
M  V30 3 1 2 4
M  V30 4 1 3 5
M  V30 5 2 4 6
M  V30 6 1 5 7
M  V30 7 2 5 8
M  V30 8 1 7 9
M  V30 9 1 8 10
M  V30 10 2 9 11
M  V30 11 1 9 12
M  V30 12 1 10 13
M  V30 13 1 11 14
M  V30 14 2 12 15
M  V30 15 1 13 16
M  V30 16 1 13 17 CFG=3
M  V30 17 2 14 18
M  V30 18 1 16 19
M  V30 19 1 19 20
M  V30 20 1 20 21
M  V30 21 2 21 22
M  V30 22 1 21 23
M  V30 23 1 22 24
M  V30 24 2 23 25
M  V30 25 2 24 26
M  V30 26 1 24 27
M  V30 27 1 26 28
M  V30 28 1 27 29
M  V30 29 1 27 30
M  V30 30 1 27 31
M  V30 31 1 28 32
M  V30 32 1 32 33
M  V30 33 2 33 34
M  V30 34 1 33 35
M  V30 35 1 6 8
M  V30 36 1 15 18
M  V30 37 1 25 26
M  V30 END BOND
M  V30 BEGIN COLLECTION
M  V30 MDLV30/STEABS ATOMS=(1 13)
M  V30 END COLLECTION
M  V30 END CTAB
M  END
>  <Molecule ChEMBL ID>
CHEMBL213361

>  <Smiles>
C[C@H](CCOc1ccc(CCC(=O)O)c(C(F)(F)F)c1)Oc1ccc(Cl)cc1Oc1ccccc1

>  <IC50_nM>
61

>  <Assay Description>
Displacement of [3H]2-methyl-2-(4-{3-[propyl-(5-pyridin-2-yl-thiophene-2-sulfonyl)-amino]-propyl}-phenoxy)-propionic acid from human PPARgamma by SPA

$$$$
CHEMBL3678153
Actelion Java MolfileCreator 2.0

  0  0  0  0  0  0              0 V3000
M  V30 BEGIN CTAB
M  V30 COUNTS 36 39 0 0 0
M  V30 BEGIN ATOM
M  V30 1 Cl 6.0621 0.0 0.0 0
M  V30 2 C 5.1961 -0.5 0.0 0
M  V30 3 C 4.3301 0.0 0.0 0
M  V30 4 C 5.1961 -1.4999 0.0 0
M  V30 5 C 3.4641 -0.5 0.0 0
M  V30 6 C 4.3301 -1.9999 0.0 0
M  V30 7 C 3.4641 -1.4999 0.0 0
M  V30 8 C 2.598 0.0 0.0 0 CFG=1
M  V30 9 N 1.732 -0.5 0.0 0
M  V30 10 C 2.598 1.0 0.0 0
M  V30 11 C 0.866 0.0 0.0 0
M  V30 12 O 0.866 1.0 0.0 0
M  V30 13 C 0.0 -0.5 0.0 0
M  V30 14 C 0.0 -1.4999 0.0 0
M  V30 15 C -0.866 0.0 0.0 0
M  V30 16 C -0.866 -1.9999 0.0 0
M  V30 17 C -1.732 -0.4999 0.0 0
M  V30 18 C -1.732 -1.4999 0.0 0
M  V30 19 C -1.0739 -2.9781 0.0 0
M  V30 20 N -2.4751 -2.1691 0.0 0
M  V30 21 C -2.0684 -3.0826 0.0 0
M  V30 22 C -0.4048 -3.7212 0.0 0
M  V30 23 C -3.4533 -1.9612 0.0 0
M  V30 24 C -2.5684 -3.9487 0.0 0
M  V30 25 C -4.1224 -2.7043 0.0 0
M  V30 26 C -5.1006 -2.4964 0.0 0
M  V30 27 C -3.8134 -3.6554 0.0 0
M  V30 28 C -5.7697 -3.2395 0.0 0
M  V30 29 C -4.4825 -4.3985 0.0 0
M  V30 30 O -6.7478 -3.0316 0.0 0
M  V30 31 C -5.4607 -4.1906 0.0 0
M  V30 32 C -7.417 -3.7748 0.0 0 CFG=2
M  V30 33 C -8.3951 -3.5669 0.0 0
M  V30 34 C -7.108 -4.7258 0.0 0
M  V30 35 O -8.7041 -2.6158 0.0 0
M  V30 36 O -9.0643 -4.31 0.0 0
M  V30 END ATOM
M  V30 BEGIN BOND
M  V30 1 1 1 2
M  V30 2 2 2 3
M  V30 3 1 2 4
M  V30 4 1 3 5
M  V30 5 2 4 6
M  V30 6 2 5 7
M  V30 7 1 5 8
M  V30 8 1 8 9
M  V30 9 1 8 10 CFG=1
M  V30 10 1 9 11
M  V30 11 2 11 12
M  V30 12 1 11 13
M  V30 13 2 13 14
M  V30 14 1 13 15
M  V30 15 1 14 16
M  V30 16 2 15 17
M  V30 17 2 16 18
M  V30 18 1 16 19
M  V30 19 1 18 20
M  V30 20 2 19 21
M  V30 21 1 19 22
M  V30 22 1 20 23
M  V30 23 1 21 24
M  V30 24 1 23 25
M  V30 25 2 25 26
M  V30 26 1 25 27
M  V30 27 1 26 28
M  V30 28 2 27 29
M  V30 29 1 28 30
M  V30 30 2 28 31
M  V30 31 1 30 32
M  V30 32 1 32 33
M  V30 33 1 32 34 CFG=1
M  V30 34 2 33 35
M  V30 35 1 33 36
M  V30 36 1 6 7
M  V30 37 1 17 18
M  V30 38 1 20 21
M  V30 39 1 29 31
M  V30 END BOND
M  V30 BEGIN COLLECTION
M  V30 MDLV30/STEABS ATOMS=(2 8 32)
M  V30 END COLLECTION
M  V30 END CTAB
M  END
>  <Molecule ChEMBL ID>
CHEMBL3678153

>  <Smiles>
Cc1c(C)n(Cc2cccc(O[C@@H](C)C(=O)O)c2)c2ccc(C(=O)N[C@@H](C)c3cccc(Cl)c3)cc12

>  <IC50_nM>
61

>  <Assay Description>
Lanthascreen Competitive Binding Assay: The assay was performed according to manufacturer protocol. A mixture of 5 nM GST-PPARG-LBD, 5 nM Tb-GST-antibody, 5 nM Fluormone Pan- PPAR Green, and serial dilutions of the experimental compound, beginning at 10 ׬� downwards, was added to wells of black 384-well low- volume plates (Greiner) to a total volume of 18 xL. All dilutions were made in TR-FRET assay buffer C. DMSO at 2% final concentration was used as a no-ligand control. Experiment was performed in triplicate, and incubated for 2 hours in the dark prior to assay read in Perkin Elmer ViewLux ultra HTS microplate reader. FRET signal was measured by excitation at 340 nm and emission at 520 nm for fluorescein and 490 nm for terbium.

$$$$
CHEMBL372913
Actelion Java MolfileCreator 2.0

  0  0  0  0  0  0              0 V3000
M  V30 BEGIN CTAB
M  V30 COUNTS 36 39 0 0 0
M  V30 BEGIN ATOM
M  V30 1 F -0.3787 -4.7021 0.0 0
M  V30 2 C -0.1708 -3.7239 0.0 0
M  V30 3 F -1.1489 -3.516 0.0 0
M  V30 4 F 0.037 -2.7458 0.0 0
M  V30 5 O 0.8073 -3.9318 0.0 0
M  V30 6 C 1.4764 -3.1887 0.0 0
M  V30 7 C 1.1674 -2.2376 0.0 0
M  V30 8 C 2.4546 -3.3966 0.0 0
M  V30 9 C 1.8365 -1.4945 0.0 0
M  V30 10 C 3.1237 -2.6534 0.0 0
M  V30 11 C 2.8147 -1.7024 0.0 0
M  V30 12 C 1.732 -0.5 0.0 0
M  V30 13 N 3.3147 -0.8364 0.0 0
M  V30 14 C 2.6455 -0.0932 0.0 0
M  V30 15 C 0.866 0.0 0.0 0
M  V30 16 C 4.3092 -0.7318 0.0 0
M  V30 17 C 2.8535 0.8848 0.0 0
M  V30 18 C 0.0 -0.5 0.0 0
M  V30 19 O 4.897 -1.5408 0.0 0
M  V30 20 C 4.7159 0.1816 0.0 0
M  V30 21 C -0.866 0.0 0.0 0
M  V30 22 C 0.0 -1.4999 0.0 0
M  V30 23 C 5.7105 0.2861 0.0 0
M  V30 24 C 4.1282 0.9906 0.0 0
M  V30 25 C -1.732 -0.4999 0.0 0
M  V30 26 C -0.866 -1.9999 0.0 0
M  V30 27 C 6.1172 1.1997 0.0 0
M  V30 28 C 4.5349 1.9042 0.0 0
M  V30 29 O -2.598 0.0 0.0 0
M  V30 30 C -1.732 -1.4999 0.0 0
M  V30 31 C 5.5294 2.0087 0.0 0
M  V30 32 C -3.4641 -0.4999 0.0 0
M  V30 33 O 5.9361 2.9223 0.0 0
M  V30 34 C -3.4641 -1.4999 0.0 0
M  V30 35 C 5.3484 3.7313 0.0 0
M  V30 36 C -3.4641 -2.4999 0.0 0
M  V30 END ATOM
M  V30 BEGIN BOND
M  V30 1 1 1 2
M  V30 2 1 2 3
M  V30 3 1 2 4
M  V30 4 1 2 5
M  V30 5 1 5 6
M  V30 6 2 6 7
M  V30 7 1 6 8
M  V30 8 1 7 9
M  V30 9 2 8 10
M  V30 10 2 9 11
M  V30 11 1 9 12
M  V30 12 1 11 13
M  V30 13 2 12 14
M  V30 14 1 12 15
M  V30 15 1 13 16
M  V30 16 1 14 17
M  V30 17 1 15 18
M  V30 18 2 16 19
M  V30 19 1 16 20
M  V30 20 2 18 21
M  V30 21 1 18 22
M  V30 22 2 20 23
M  V30 23 1 20 24
M  V30 24 1 21 25
M  V30 25 2 22 26
M  V30 26 1 23 27
M  V30 27 2 24 28
M  V30 28 1 25 29
M  V30 29 2 25 30
M  V30 30 2 27 31
M  V30 31 1 29 32
M  V30 32 1 31 33
M  V30 33 1 32 34
M  V30 34 1 33 35
M  V30 35 3 34 36
M  V30 36 1 10 11
M  V30 37 1 13 14
M  V30 38 1 26 30
M  V30 39 1 28 31
M  V30 END BOND
M  V30 END CTAB
M  END
>  <Molecule ChEMBL ID>
CHEMBL372913

>  <Smiles>
C#CCOc1cccc(Cc2c(C)n(C(=O)c3ccc(OC)cc3)c3ccc(OC(F)(F)F)cc23)c1

>  <IC50_nM>
62

>  <Assay Description>
Inhibition of human peroxisome proliferator activated receptor gamma binding

$$$$
CHEMBL3699441
Actelion Java MolfileCreator 2.0

  0  0  0  0  0  0              0 V3000
M  V30 BEGIN CTAB
M  V30 COUNTS 41 45 0 0 0
M  V30 BEGIN ATOM
M  V30 1 O 5.1961 -0.7499 0.0 0
M  V30 2 C 3.8971 0.0 0.0 0
M  V30 3 N 2.598 -0.7499 0.0 0
M  V30 4 C 3.8971 1.5 0.0 0
M  V30 5 C 1.299 0.0 0.0 0 CFG=2
M  V30 6 C 2.598 2.25 0.0 0
M  V30 7 C 5.1961 2.25 0.0 0
M  V30 8 C 0.0 -0.7499 0.0 0
M  V30 9 C 1.299 1.5 0.0 0
M  V30 10 C 2.598 3.75 0.0 0
M  V30 11 C 5.1961 3.75 0.0 0
M  V30 12 C 0.0 -2.2499 0.0 0
M  V30 13 C -1.299 0.0 0.0 0
M  V30 14 C 3.8971 4.5 0.0 0
M  V30 15 C 1.4833 4.7536 0.0 0
M  V30 16 C -1.299 -2.9999 0.0 0
M  V30 17 C -2.598 -0.7499 0.0 0
M  V30 18 N 3.5852 5.9672 0.0 0
M  V30 19 C 2.0934 6.124 0.0 0
M  V30 20 C 0.0161 4.4418 0.0 0
M  V30 21 C -2.598 -2.2499 0.0 0
M  V30 22 C -1.299 -4.4999 0.0 0
M  V30 23 C 4.5889 7.0819 0.0 0
M  V30 24 C 1.3434 7.423 0.0 0
M  V30 25 C 0.0 -5.2499 0.0 0
M  V30 26 C -2.598 -5.2499 0.0 0
M  V30 27 C 4.1254 8.5085 0.0 0
M  V30 28 C 5.1291 9.6232 0.0 0
M  V30 29 C 2.6581 8.8203 0.0 0
M  V30 30 C 4.6655 11.0498 0.0 0
M  V30 31 C 2.1946 10.2469 0.0 0
M  V30 32 C 3.1983 11.3616 0.0 0
M  V30 33 C 2.7348 12.7882 0.0 0
M  V30 34 C 3.7385 13.9029 0.0 0
M  V30 35 C 1.2676 13.1001 0.0 0
M  V30 36 C 5.2057 13.5911 0.0 0
M  V30 37 C 3.275 15.3295 0.0 0
M  V30 38 C 0.804 14.5267 0.0 0
M  V30 39 O 5.6692 12.1645 0.0 0
M  V30 40 N 6.2094 14.7058 0.0 0
M  V30 41 C 1.8077 15.6414 0.0 0
M  V30 END ATOM
M  V30 BEGIN BOND
M  V30 1 2 1 2
M  V30 2 1 2 3
M  V30 3 1 2 4
M  V30 4 1 3 5
M  V30 5 2 4 6
M  V30 6 1 4 7
M  V30 7 1 5 8
M  V30 8 1 5 9 CFG=3
M  V30 9 1 6 10
M  V30 10 2 7 11
M  V30 11 2 8 12
M  V30 12 1 8 13
M  V30 13 2 10 14
M  V30 14 1 10 15
M  V30 15 1 12 16
M  V30 16 2 13 17
M  V30 17 1 14 18
M  V30 18 2 15 19
M  V30 19 1 15 20
M  V30 20 2 16 21
M  V30 21 1 16 22
M  V30 22 1 18 23
M  V30 23 1 19 24
M  V30 24 1 22 25
M  V30 25 1 22 26
M  V30 26 1 23 27
M  V30 27 2 27 28
M  V30 28 1 27 29
M  V30 29 1 28 30
M  V30 30 2 29 31
M  V30 31 2 30 32
M  V30 32 1 32 33
M  V30 33 2 33 34
M  V30 34 1 33 35
M  V30 35 1 34 36
M  V30 36 1 34 37
M  V30 37 2 35 38
M  V30 38 2 36 39
M  V30 39 1 36 40
M  V30 40 2 37 41
M  V30 41 1 11 14
M  V30 42 1 17 21
M  V30 43 1 18 19
M  V30 44 1 31 32
M  V30 45 1 38 41
M  V30 END BOND
M  V30 BEGIN COLLECTION
M  V30 MDLV30/STEABS ATOMS=(1 5)
M  V30 END COLLECTION
M  V30 END CTAB
M  END
>  <Molecule ChEMBL ID>
CHEMBL3699441

>  <Smiles>
Cc1c(C)n(Cc2ccc(-c3ccccc3C(N)=O)cc2)c2ccc(C(=O)N[C@@H](C)c3cccc(C(C)C)c3)cc12

>  <IC50_nM>
62

>  <Assay Description>
Lanthascreen Competitive Binding Assay: The assay was performed according to manufacturer protocol. A mixture of nM GST-PPARG-LBD, 5 nM Tb-GST-antibody, 5 nM Fluormone Pan-PPAR Green, and serial dilutions of the experimental compound, beginning at 10 ׬M downwards, was added to wells of black 384-well low-volume plates (Greiner) to a total volume of 18 ׬L. All dilutions were made in TR-FRET assay buffer C. DMSO at 2% final concentration was used as a no-ligand control. Experiment was performed in triplicate, and incubated for 2 hours in the dark prior to assay read in Perkin Elmer ViewLux ultra HTS microplate reader. FRET signal was measured by excitation at 340 nm and emission at 520 nm for fluorescein and 490 nm for terbium. Fold change over DMSO was calculated using GraphPad Prism Software (La Jolla, Calif.) by calculating 520 nm/490 nm ratio. Graphs were plotted as fold change of FRET signal for compound treatment over DMSO-only control.

$$$$
CHEMBL2037181
Actelion Java MolfileCreator 2.0

  0  0  0  0  0  0              0 V3000
M  V30 BEGIN CTAB
M  V30 COUNTS 33 36 0 0 0
M  V30 BEGIN ATOM
M  V30 1 S 8.7077 -0.4067 0.0 0
M  V30 2 C 9.3769 0.3364 0.0 0
M  V30 3 C 7.7942 0.0 0.0 0 CFG=1
M  V30 4 O 10.3714 0.2318 0.0 0
M  V30 5 N 8.8769 1.2024 0.0 0
M  V30 6 C 6.9282 -0.5 0.0 0
M  V30 7 C 7.8987 0.9945 0.0 0
M  V30 8 C 6.0621 0.0 0.0 0
M  V30 9 C 6.9282 -1.5 0.0 0
M  V30 10 O 7.1556 1.6636 0.0 0
M  V30 11 C 5.1961 -0.5 0.0 0
M  V30 12 C 6.0621 -2.0 0.0 0
M  V30 13 O 4.3301 0.0 0.0 0
M  V30 14 C 5.1961 -1.5 0.0 0
M  V30 15 C 3.4641 -0.5 0.0 0
M  V30 16 C 2.598 0.0 0.0 0
M  V30 17 C 1.732 -0.5 0.0 0
M  V30 18 O 0.866 0.0 0.0 0
M  V30 19 C 0.0 -0.5 0.0 0
M  V30 20 C -0.866 0.0 0.0 0
M  V30 21 C 0.0 -1.4999 0.0 0
M  V30 22 C -1.732 -0.4999 0.0 0
M  V30 23 C -0.866 1.0 0.0 0
M  V30 24 C -0.866 -1.9999 0.0 0
M  V30 25 C -1.732 -1.4999 0.0 0
M  V30 26 C 0.0 1.5 0.0 0
M  V30 27 O -2.598 -1.9999 0.0 0
M  V30 28 C 0.0 2.5 0.0 0
M  V30 29 C -2.598 -2.9999 0.0 0
M  V30 30 C -3.407 -3.5877 0.0 0
M  V30 31 C -1.789 -3.5877 0.0 0
M  V30 32 C -3.098 -4.5388 0.0 0
M  V30 33 C -2.098 -4.5388 0.0 0
M  V30 END ATOM
M  V30 BEGIN BOND
M  V30 1 1 1 2
M  V30 2 1 1 3
M  V30 3 2 2 4
M  V30 4 1 2 5
M  V30 5 1 3 6 CFG=1
M  V30 6 1 3 7
M  V30 7 2 6 8
M  V30 8 1 6 9
M  V30 9 2 7 10
M  V30 10 1 8 11
M  V30 11 2 9 12
M  V30 12 1 11 13
M  V30 13 2 11 14
M  V30 14 1 13 15
M  V30 15 1 15 16
M  V30 16 1 16 17
M  V30 17 1 17 18
M  V30 18 1 18 19
M  V30 19 2 19 20
M  V30 20 1 19 21
M  V30 21 1 20 22
M  V30 22 1 20 23
M  V30 23 2 21 24
M  V30 24 2 22 25
M  V30 25 1 23 26
M  V30 26 1 25 27
M  V30 27 1 26 28
M  V30 28 1 27 29
M  V30 29 1 29 30
M  V30 30 1 29 31
M  V30 31 1 30 32
M  V30 32 1 31 33
M  V30 33 1 5 7
M  V30 34 1 12 14
M  V30 35 1 24 25
M  V30 36 1 32 33
M  V30 END BOND
M  V30 BEGIN COLLECTION
M  V30 MDLV30/STEABS ATOMS=(1 3)
M  V30 END COLLECTION
M  V30 END CTAB
M  END
>  <Molecule ChEMBL ID>
CHEMBL2037181

>  <Smiles>
CCCc1cc(OC2CCCC2)ccc1OCCCOc1cccc([C@@H]2SC(=O)NC2=O)c1

>  <IC50_nM>
62.95

>  <Assay Description>
Agonist activity at PPARgamma

$$$$
CHEMBL215245
Actelion Java MolfileCreator 2.0

  0  0  0  0  0  0              0 V3000
M  V30 BEGIN CTAB
M  V30 COUNTS 32 34 0 0 0
M  V30 BEGIN ATOM
M  V30 1 Cl 7.7942 -2.0 0.0 0
M  V30 2 C 6.9282 -1.5 0.0 0
M  V30 3 C 6.9282 -0.5 0.0 0
M  V30 4 C 6.0621 -2.0 0.0 0
M  V30 5 C 6.0621 0.0 0.0 0
M  V30 6 C 5.1961 -1.5 0.0 0
M  V30 7 O 6.0621 1.0 0.0 0
M  V30 8 C 5.1961 -0.5 0.0 0
M  V30 9 C 5.1961 1.5 0.0 0
M  V30 10 O 4.3301 0.0 0.0 0
M  V30 11 C 5.1961 2.5 0.0 0
M  V30 12 C 4.3301 1.0 0.0 0
M  V30 13 C 3.4641 -0.5 0.0 0 CFG=1
M  V30 14 C 4.3301 3.0 0.0 0
M  V30 15 C 3.4641 1.5 0.0 0
M  V30 16 C 2.598 0.0 0.0 0
M  V30 17 C 3.4641 -1.5 0.0 0
M  V30 18 C 3.4641 2.5 0.0 0
M  V30 19 C 1.732 -0.5 0.0 0
M  V30 20 O 0.866 0.0 0.0 0
M  V30 21 C 0.0 -0.5 0.0 0
M  V30 22 C -0.866 0.0 0.0 0
M  V30 23 C 0.0 -1.4999 0.0 0
M  V30 24 C -1.732 -0.4999 0.0 0
M  V30 25 C -0.866 -1.9999 0.0 0
M  V30 26 F -2.598 0.0 0.0 0
M  V30 27 C -1.732 -1.4999 0.0 0
M  V30 28 C -2.598 -1.9999 0.0 0
M  V30 29 C -2.598 -2.9999 0.0 0
M  V30 30 C -3.4641 -3.4999 0.0 0
M  V30 31 O -4.3301 -2.9999 0.0 0
M  V30 32 O -3.4641 -4.4999 0.0 0
M  V30 END ATOM
M  V30 BEGIN BOND
M  V30 1 1 1 2
M  V30 2 2 2 3
M  V30 3 1 2 4
M  V30 4 1 3 5
M  V30 5 2 4 6
M  V30 6 1 5 7
M  V30 7 2 5 8
M  V30 8 1 7 9
M  V30 9 1 8 10
M  V30 10 2 9 11
M  V30 11 1 9 12
M  V30 12 1 10 13
M  V30 13 1 11 14
M  V30 14 2 12 15
M  V30 15 1 13 16
M  V30 16 1 13 17 CFG=3
M  V30 17 2 14 18
M  V30 18 1 16 19
M  V30 19 1 19 20
M  V30 20 1 20 21
M  V30 21 2 21 22
M  V30 22 1 21 23
M  V30 23 1 22 24
M  V30 24 2 23 25
M  V30 25 1 24 26
M  V30 26 2 24 27
M  V30 27 1 27 28
M  V30 28 1 28 29
M  V30 29 1 29 30
M  V30 30 2 30 31
M  V30 31 1 30 32
M  V30 32 1 6 8
M  V30 33 1 15 18
M  V30 34 1 25 27
M  V30 END BOND
M  V30 BEGIN COLLECTION
M  V30 MDLV30/STEABS ATOMS=(1 13)
M  V30 END COLLECTION
M  V30 END CTAB
M  END
>  <Molecule ChEMBL ID>
CHEMBL215245

>  <Smiles>
C[C@H](CCOc1ccc(CCC(=O)O)c(F)c1)Oc1ccc(Cl)cc1Oc1ccccc1

>  <IC50_nM>
62.95

>  <Assay Description>
Agonist activity at PPARgamma

$$$$
CHEMBL215245
Actelion Java MolfileCreator 2.0

  0  0  0  0  0  0              0 V3000
M  V30 BEGIN CTAB
M  V30 COUNTS 32 34 0 0 0
M  V30 BEGIN ATOM
M  V30 1 Cl 7.7942 -2.0 0.0 0
M  V30 2 C 6.9282 -1.5 0.0 0
M  V30 3 C 6.9282 -0.5 0.0 0
M  V30 4 C 6.0621 -2.0 0.0 0
M  V30 5 C 6.0621 0.0 0.0 0
M  V30 6 C 5.1961 -1.5 0.0 0
M  V30 7 O 6.0621 1.0 0.0 0
M  V30 8 C 5.1961 -0.5 0.0 0
M  V30 9 C 5.1961 1.5 0.0 0
M  V30 10 O 4.3301 0.0 0.0 0
M  V30 11 C 5.1961 2.5 0.0 0
M  V30 12 C 4.3301 1.0 0.0 0
M  V30 13 C 3.4641 -0.5 0.0 0 CFG=1
M  V30 14 C 4.3301 3.0 0.0 0
M  V30 15 C 3.4641 1.5 0.0 0
M  V30 16 C 2.598 0.0 0.0 0
M  V30 17 C 3.4641 -1.5 0.0 0
M  V30 18 C 3.4641 2.5 0.0 0
M  V30 19 C 1.732 -0.5 0.0 0
M  V30 20 O 0.866 0.0 0.0 0
M  V30 21 C 0.0 -0.5 0.0 0
M  V30 22 C -0.866 0.0 0.0 0
M  V30 23 C 0.0 -1.4999 0.0 0
M  V30 24 C -1.732 -0.4999 0.0 0
M  V30 25 C -0.866 -1.9999 0.0 0
M  V30 26 F -2.598 0.0 0.0 0
M  V30 27 C -1.732 -1.4999 0.0 0
M  V30 28 C -2.598 -1.9999 0.0 0
M  V30 29 C -2.598 -2.9999 0.0 0
M  V30 30 C -3.4641 -3.4999 0.0 0
M  V30 31 O -4.3301 -2.9999 0.0 0
M  V30 32 O -3.4641 -4.4999 0.0 0
M  V30 END ATOM
M  V30 BEGIN BOND
M  V30 1 1 1 2
M  V30 2 2 2 3
M  V30 3 1 2 4
M  V30 4 1 3 5
M  V30 5 2 4 6
M  V30 6 1 5 7
M  V30 7 2 5 8
M  V30 8 1 7 9
M  V30 9 1 8 10
M  V30 10 2 9 11
M  V30 11 1 9 12
M  V30 12 1 10 13
M  V30 13 1 11 14
M  V30 14 2 12 15
M  V30 15 1 13 16
M  V30 16 1 13 17 CFG=3
M  V30 17 2 14 18
M  V30 18 1 16 19
M  V30 19 1 19 20
M  V30 20 1 20 21
M  V30 21 2 21 22
M  V30 22 1 21 23
M  V30 23 1 22 24
M  V30 24 2 23 25
M  V30 25 1 24 26
M  V30 26 2 24 27
M  V30 27 1 27 28
M  V30 28 1 28 29
M  V30 29 1 29 30
M  V30 30 2 30 31
M  V30 31 1 30 32
M  V30 32 1 6 8
M  V30 33 1 15 18
M  V30 34 1 25 27
M  V30 END BOND
M  V30 BEGIN COLLECTION
M  V30 MDLV30/STEABS ATOMS=(1 13)
M  V30 END COLLECTION
M  V30 END CTAB
M  END
>  <Molecule ChEMBL ID>
CHEMBL215245

>  <Smiles>
C[C@H](CCOc1ccc(CCC(=O)O)c(F)c1)Oc1ccc(Cl)cc1Oc1ccccc1

>  <IC50_nM>
63

>  <Assay Description>
Displacement of [3H]2-methyl-2-(4-{3-[propyl-(5-pyridin-2-yl-thiophene-2-sulfonyl)-amino]-propyl}-phenoxy)-propionic acid from human PPARgamma by SPA

$$$$
CHEMBL1783035
Actelion Java MolfileCreator 2.0

  0  0  0  0  0  0              0 V3000
M  V30 BEGIN CTAB
M  V30 COUNTS 33 36 0 0 0
M  V30 BEGIN ATOM
M  V30 1 S 8.7077 -0.4067 0.0 0
M  V30 2 C 9.3769 0.3364 0.0 0
M  V30 3 C 7.7942 0.0 0.0 0 CFG=2
M  V30 4 O 10.3714 0.2318 0.0 0
M  V30 5 N 8.8769 1.2024 0.0 0
M  V30 6 C 6.9282 -0.5 0.0 0
M  V30 7 C 7.8987 0.9945 0.0 0
M  V30 8 C 6.0621 0.0 0.0 0
M  V30 9 C 6.9282 -1.5 0.0 0
M  V30 10 O 7.1556 1.6636 0.0 0
M  V30 11 C 5.1961 -0.5 0.0 0
M  V30 12 C 6.0621 -2.0 0.0 0
M  V30 13 O 4.3301 0.0 0.0 0
M  V30 14 C 5.1961 -1.5 0.0 0
M  V30 15 C 3.4641 -0.5 0.0 0
M  V30 16 C 2.598 0.0 0.0 0
M  V30 17 C 1.732 -0.5 0.0 0
M  V30 18 O 0.866 0.0 0.0 0
M  V30 19 C 0.0 -0.5 0.0 0
M  V30 20 C -0.866 0.0 0.0 0
M  V30 21 C 0.0 -1.4999 0.0 0
M  V30 22 C -1.732 -0.4999 0.0 0
M  V30 23 C -0.866 1.0 0.0 0
M  V30 24 C -0.866 -1.9999 0.0 0
M  V30 25 C -1.732 -1.4999 0.0 0
M  V30 26 C 0.0 1.5 0.0 0
M  V30 27 O -2.598 -1.9999 0.0 0
M  V30 28 C 0.0 2.5 0.0 0
M  V30 29 C -2.598 -2.9999 0.0 0
M  V30 30 C -3.407 -3.5877 0.0 0
M  V30 31 C -1.789 -3.5877 0.0 0
M  V30 32 C -3.098 -4.5388 0.0 0
M  V30 33 C -2.098 -4.5388 0.0 0
M  V30 END ATOM
M  V30 BEGIN BOND
M  V30 1 1 1 2
M  V30 2 1 1 3
M  V30 3 2 2 4
M  V30 4 1 2 5
M  V30 5 1 3 6 CFG=3
M  V30 6 1 3 7
M  V30 7 2 6 8
M  V30 8 1 6 9
M  V30 9 2 7 10
M  V30 10 1 8 11
M  V30 11 2 9 12
M  V30 12 1 11 13
M  V30 13 2 11 14
M  V30 14 1 13 15
M  V30 15 1 15 16
M  V30 16 1 16 17
M  V30 17 1 17 18
M  V30 18 1 18 19
M  V30 19 2 19 20
M  V30 20 1 19 21
M  V30 21 1 20 22
M  V30 22 1 20 23
M  V30 23 2 21 24
M  V30 24 2 22 25
M  V30 25 1 23 26
M  V30 26 1 25 27
M  V30 27 1 26 28
M  V30 28 1 27 29
M  V30 29 1 29 30
M  V30 30 1 29 31
M  V30 31 1 30 32
M  V30 32 1 31 33
M  V30 33 1 5 7
M  V30 34 1 12 14
M  V30 35 1 24 25
M  V30 36 1 32 33
M  V30 END BOND
M  V30 BEGIN COLLECTION
M  V30 MDLV30/STEABS ATOMS=(1 3)
M  V30 END COLLECTION
M  V30 END CTAB
M  END
>  <Molecule ChEMBL ID>
CHEMBL1783035

>  <Smiles>
CCCc1cc(OC2CCCC2)ccc1OCCCOc1cccc([C@H]2SC(=O)NC2=O)c1

>  <IC50_nM>
63

>  <Assay Description>
Displacement of radio-labeled full agonist from PPARgamma receptor

$$$$
CHEMBL118169
Actelion Java MolfileCreator 2.0

  0  0  0  0  0  0              0 V3000
M  V30 BEGIN CTAB
M  V30 COUNTS 33 36 0 0 0
M  V30 BEGIN ATOM
M  V30 1 S 8.7077 -0.4067 0.0 0
M  V30 2 C 9.3769 0.3364 0.0 0
M  V30 3 C 7.7942 0.0 0.0 0 CFG=2
M  V30 4 O 10.3714 0.2318 0.0 0
M  V30 5 N 8.8769 1.2024 0.0 0
M  V30 6 C 6.9282 -0.5 0.0 0
M  V30 7 C 7.8987 0.9945 0.0 0
M  V30 8 C 6.0621 0.0 0.0 0
M  V30 9 C 6.9282 -1.5 0.0 0
M  V30 10 O 7.1556 1.6636 0.0 0
M  V30 11 C 5.1961 -0.5 0.0 0
M  V30 12 C 6.0621 -2.0 0.0 0
M  V30 13 O 4.3301 0.0 0.0 0
M  V30 14 C 5.1961 -1.5 0.0 0
M  V30 15 C 3.4641 -0.5 0.0 0
M  V30 16 C 2.598 0.0 0.0 0
M  V30 17 C 1.732 -0.5 0.0 0
M  V30 18 O 0.866 0.0 0.0 0
M  V30 19 C 0.0 -0.5 0.0 0
M  V30 20 C -0.866 0.0 0.0 0
M  V30 21 C 0.0 -1.4999 0.0 0
M  V30 22 C -1.732 -0.4999 0.0 0
M  V30 23 C -0.866 1.0 0.0 0
M  V30 24 C -0.866 -1.9999 0.0 0
M  V30 25 C -1.732 -1.4999 0.0 0
M  V30 26 C 0.0 1.5 0.0 0
M  V30 27 O -2.598 -1.9999 0.0 0
M  V30 28 C 0.0 2.5 0.0 0
M  V30 29 C -2.598 -2.9999 0.0 0
M  V30 30 C -3.407 -3.5877 0.0 0
M  V30 31 C -1.789 -3.5877 0.0 0
M  V30 32 C -3.098 -4.5388 0.0 0
M  V30 33 C -2.098 -4.5388 0.0 0
M  V30 END ATOM
M  V30 BEGIN BOND
M  V30 1 1 1 2
M  V30 2 1 1 3
M  V30 3 2 2 4
M  V30 4 1 2 5
M  V30 5 1 3 6 CFG=3
M  V30 6 1 3 7
M  V30 7 2 6 8
M  V30 8 1 6 9
M  V30 9 2 7 10
M  V30 10 1 8 11
M  V30 11 2 9 12
M  V30 12 1 11 13
M  V30 13 2 11 14
M  V30 14 1 13 15
M  V30 15 1 15 16
M  V30 16 1 16 17
M  V30 17 1 17 18
M  V30 18 1 18 19
M  V30 19 2 19 20
M  V30 20 1 19 21
M  V30 21 1 20 22
M  V30 22 1 20 23
M  V30 23 2 21 24
M  V30 24 2 22 25
M  V30 25 1 23 26
M  V30 26 1 25 27
M  V30 27 1 26 28
M  V30 28 1 27 29
M  V30 29 1 29 30
M  V30 30 1 29 31
M  V30 31 1 30 32
M  V30 32 1 31 33
M  V30 33 1 5 7
M  V30 34 1 12 14
M  V30 35 1 24 25
M  V30 36 1 32 33
M  V30 END BOND
M  V30 BEGIN COLLECTION
M  V30 MDLV30/STERAC1 ATOMS=(1 3)
M  V30 END COLLECTION
M  V30 END CTAB
M  END
>  <Molecule ChEMBL ID>
CHEMBL118169

>  <Smiles>
CCCc1cc(OC2CCCC2)ccc1OCCCOc1cccc(C2SC(=O)NC2=O)c1

>  <IC50_nM>
63

>  <Assay Description>
In vitro binding affinity against human peroxisome proliferator activated receptor gamma

$$$$
CHEMBL318684
Actelion Java MolfileCreator 2.0

  0  0  0  0  0  0              0 V3000
M  V30 BEGIN CTAB
M  V30 COUNTS 36 39 0 0 0
M  V30 BEGIN ATOM
M  V30 1 Cl 6.0621 -4.9999 0.0 0
M  V30 2 C 6.9282 -4.5 0.0 0
M  V30 3 C 7.7942 -5.0 0.0 0
M  V30 4 C 6.9282 -3.5 0.0 0
M  V30 5 Cl 7.7942 -6.0 0.0 0
M  V30 6 C 8.6602 -4.5 0.0 0
M  V30 7 C 7.7942 -3.0 0.0 0
M  V30 8 C 8.6602 -3.5 0.0 0
M  V30 9 O 7.7942 -2.0 0.0 0
M  V30 10 C 6.9282 -1.5 0.0 0
M  V30 11 C 6.9282 -0.5 0.0 0
M  V30 12 C 6.0621 -2.0 0.0 0
M  V30 13 C 6.0621 0.0 0.0 0
M  V30 14 C 5.1961 -1.5 0.0 0
M  V30 15 C 5.1961 -0.5 0.0 0
M  V30 16 C 6.0621 0.9999 0.0 0
M  V30 17 O 4.3301 0.0 0.0 0
M  V30 18 C 6.9282 1.4999 0.0 0
M  V30 19 C 3.4641 -0.5 0.0 0
M  V30 20 C 6.9282 2.4999 0.0 0
M  V30 21 C 2.598 0.0 0.0 0
M  V30 22 C 1.732 -0.5 0.0 0
M  V30 23 O 0.866 0.0 0.0 0
M  V30 24 C 0.0 -0.5 0.0 0
M  V30 25 C -0.866 0.0 0.0 0
M  V30 26 C 0.0 -1.4999 0.0 0
M  V30 27 C -1.732 -0.4999 0.0 0
M  V30 28 C -0.866 -1.9999 0.0 0
M  V30 29 C -1.732 -1.4999 0.0 0
M  V30 30 C -2.598 0.0 0.0 0 CFG=1
M  V30 31 S -2.7026 0.9945 0.0 0
M  V30 32 C -3.5116 -0.4067 0.0 0
M  V30 33 C -3.6807 1.2024 0.0 0
M  V30 34 O -3.7195 -1.3848 0.0 0
M  V30 35 N -4.1807 0.3364 0.0 0
M  V30 36 O -4.0874 2.1159 0.0 0
M  V30 END ATOM
M  V30 BEGIN BOND
M  V30 1 1 1 2
M  V30 2 2 2 3
M  V30 3 1 2 4
M  V30 4 1 3 5
M  V30 5 1 3 6
M  V30 6 2 4 7
M  V30 7 2 6 8
M  V30 8 1 7 9
M  V30 9 1 9 10
M  V30 10 2 10 11
M  V30 11 1 10 12
M  V30 12 1 11 13
M  V30 13 2 12 14
M  V30 14 2 13 15
M  V30 15 1 13 16
M  V30 16 1 15 17
M  V30 17 1 16 18
M  V30 18 1 17 19
M  V30 19 1 18 20
M  V30 20 1 19 21
M  V30 21 1 21 22
M  V30 22 1 22 23
M  V30 23 1 23 24
M  V30 24 2 24 25
M  V30 25 1 24 26
M  V30 26 1 25 27
M  V30 27 2 26 28
M  V30 28 2 27 29
M  V30 29 1 30 27 CFG=3
M  V30 30 1 30 31
M  V30 31 1 30 32
M  V30 32 1 31 33
M  V30 33 2 32 34
M  V30 34 1 32 35
M  V30 35 2 33 36
M  V30 36 1 7 8
M  V30 37 1 14 15
M  V30 38 1 28 29
M  V30 39 1 33 35
M  V30 END BOND
M  V30 BEGIN COLLECTION
M  V30 MDLV30/STERAC1 ATOMS=(1 30)
M  V30 END COLLECTION
M  V30 END CTAB
M  END
>  <Molecule ChEMBL ID>
CHEMBL318684

>  <Smiles>
CCCc1cc(Oc2ccc(Cl)c(Cl)c2)ccc1OCCCOc1cccc(C2SC(=O)NC2=O)c1

>  <IC50_nM>
64

>  <Assay Description>
Displacement of radio-labeled full agonist from PPARgamma receptor

$$$$
CHEMBL3695848
Actelion Java MolfileCreator 2.0

  0  0  0  0  0  0              0 V3000
M  V30 BEGIN CTAB
M  V30 COUNTS 41 46 0 0 0
M  V30 BEGIN ATOM
M  V30 1 O 11.8592 -3.5669 0.0 0
M  V30 2 C 10.8811 -3.7748 0.0 0
M  V30 3 O 10.212 -3.0316 0.0 0
M  V30 4 C 10.5721 -4.7258 0.0 0
M  V30 5 C 9.5939 -4.9337 0.0 0
M  V30 6 C 11.2412 -5.469 0.0 0
M  V30 7 C 8.9248 -4.1906 0.0 0
M  V30 8 C 9.2849 -5.8848 0.0 0
M  V30 9 C 10.9322 -6.42 0.0 0
M  V30 10 C 9.2338 -3.2395 0.0 0
M  V30 11 C 7.9466 -4.3985 0.0 0
M  V30 12 C 9.954 -6.6279 0.0 0
M  V30 13 C 8.5647 -2.4964 0.0 0
M  V30 14 C 7.2775 -3.6554 0.0 0
M  V30 15 C 7.5865 -2.7043 0.0 0
M  V30 16 C 6.9174 -1.9612 0.0 0
M  V30 17 N 5.9392 -2.1691 0.0 0
M  V30 18 C 5.1961 -1.4999 0.0 0
M  V30 19 C 5.5325 -3.0826 0.0 0
M  V30 20 C 4.3301 -1.9999 0.0 0
M  V30 21 C 5.1961 -0.4999 0.0 0
M  V30 22 C 4.538 -2.9781 0.0 0
M  V30 23 C 6.0325 -3.9487 0.0 0
M  V30 24 C 3.4641 -1.5 0.0 0
M  V30 25 C 4.3301 0.0 0.0 0
M  V30 26 C 3.8689 -3.7212 0.0 0
M  V30 27 C 3.4641 -0.5 0.0 0
M  V30 28 C 2.598 0.0 0.0 0
M  V30 29 O 2.598 1.0 0.0 0
M  V30 30 N 1.732 -0.5 0.0 0
M  V30 31 C 0.866 0.0 0.0 0
M  V30 32 C 0.0 -0.5 0.0 0
M  V30 33 C -0.866 0.0 0.0 0
M  V30 34 C 0.0 -1.4999 0.0 0
M  V30 35 C -1.732 -0.4999 0.0 0
M  V30 36 C -0.866 1.0 0.0 0
M  V30 37 C -0.866 -1.9999 0.0 0
M  V30 38 C -1.732 -1.4999 0.0 0
M  V30 39 C -2.598 0.0 0.0 0
M  V30 40 C -1.732 1.5 0.0 0
M  V30 41 C -2.598 1.0 0.0 0
M  V30 END ATOM
M  V30 BEGIN BOND
M  V30 1 2 1 2
M  V30 2 1 2 3
M  V30 3 1 2 4
M  V30 4 2 4 5
M  V30 5 1 4 6
M  V30 6 1 5 7
M  V30 7 1 5 8
M  V30 8 2 6 9
M  V30 9 2 7 10
M  V30 10 1 7 11
M  V30 11 2 8 12
M  V30 12 1 10 13
M  V30 13 2 11 14
M  V30 14 2 13 15
M  V30 15 1 15 16
M  V30 16 1 16 17
M  V30 17 1 17 18
M  V30 18 1 17 19
M  V30 19 2 18 20
M  V30 20 1 18 21
M  V30 21 2 19 22
M  V30 22 1 19 23
M  V30 23 1 20 24
M  V30 24 2 21 25
M  V30 25 1 22 26
M  V30 26 2 24 27
M  V30 27 1 27 28
M  V30 28 2 28 29
M  V30 29 1 28 30
M  V30 30 1 30 31
M  V30 31 1 31 32
M  V30 32 1 32 33
M  V30 33 2 32 34
M  V30 34 1 33 35
M  V30 35 2 33 36
M  V30 36 1 34 37
M  V30 37 1 35 38
M  V30 38 2 35 39
M  V30 39 1 36 40
M  V30 40 1 39 41
M  V30 41 1 9 12
M  V30 42 1 14 15
M  V30 43 1 20 22
M  V30 44 1 25 27
M  V30 45 2 37 38
M  V30 46 2 40 41
M  V30 END BOND
M  V30 END CTAB
M  END
>  <Molecule ChEMBL ID>
CHEMBL3695848

>  <Smiles>
Cc1c(C)n(Cc2ccc(-c3ccccc3C(=O)O)cc2)c2ccc(C(=O)NCc3cccc4ccccc34)cc12

>  <IC50_nM>
64

>  <Assay Description>
Lanthascreen Competitive Binding Assay: The assay was performed according to manufacturer protocol. A mixture of nM GST-PPARG-LBD, 5 nM Tb-GST-antibody, 5 nM Fluormone Pan-PPAR Green, and serial dilutions of the experimental compound, beginning at 10 ׬M downwards, was added to wells of black 384-well low-volume plates (Greiner) to a total volume of 18 ׬L. All dilutions were made in TR-FRET assay buffer C. DMSO at 2% final concentration was used as a no-ligand control. Experiment was performed in triplicate, and incubated for 2 hours in the dark prior to assay read in Perkin Elmer ViewLux ultra HTS microplate reader. FRET signal was measured by excitation at 340 nm and emission at 520 nm for fluorescein and 490 nm for terbium. Fold change over DMSO was calculated using GraphPad Prism Software (La Jolla, Calif.) by calculating 520 nm/490 nm ratio. Graphs were plotted as fold change of FRET signal for compound treatment over DMSO-only control.

$$$$
CHEMBL318684
Actelion Java MolfileCreator 2.0

  0  0  0  0  0  0              0 V3000
M  V30 BEGIN CTAB
M  V30 COUNTS 36 39 0 0 0
M  V30 BEGIN ATOM
M  V30 1 Cl 6.0621 -4.9999 0.0 0
M  V30 2 C 6.9282 -4.5 0.0 0
M  V30 3 C 7.7942 -5.0 0.0 0
M  V30 4 C 6.9282 -3.5 0.0 0
M  V30 5 Cl 7.7942 -6.0 0.0 0
M  V30 6 C 8.6602 -4.5 0.0 0
M  V30 7 C 7.7942 -3.0 0.0 0
M  V30 8 C 8.6602 -3.5 0.0 0
M  V30 9 O 7.7942 -2.0 0.0 0
M  V30 10 C 6.9282 -1.5 0.0 0
M  V30 11 C 6.9282 -0.5 0.0 0
M  V30 12 C 6.0621 -2.0 0.0 0
M  V30 13 C 6.0621 0.0 0.0 0
M  V30 14 C 5.1961 -1.5 0.0 0
M  V30 15 C 5.1961 -0.5 0.0 0
M  V30 16 C 6.0621 0.9999 0.0 0
M  V30 17 O 4.3301 0.0 0.0 0
M  V30 18 C 6.9282 1.4999 0.0 0
M  V30 19 C 3.4641 -0.5 0.0 0
M  V30 20 C 6.9282 2.4999 0.0 0
M  V30 21 C 2.598 0.0 0.0 0
M  V30 22 C 1.732 -0.5 0.0 0
M  V30 23 O 0.866 0.0 0.0 0
M  V30 24 C 0.0 -0.5 0.0 0
M  V30 25 C -0.866 0.0 0.0 0
M  V30 26 C 0.0 -1.4999 0.0 0
M  V30 27 C -1.732 -0.4999 0.0 0
M  V30 28 C -0.866 -1.9999 0.0 0
M  V30 29 C -1.732 -1.4999 0.0 0
M  V30 30 C -2.598 0.0 0.0 0 CFG=1
M  V30 31 S -2.7026 0.9945 0.0 0
M  V30 32 C -3.5116 -0.4067 0.0 0
M  V30 33 C -3.6807 1.2024 0.0 0
M  V30 34 O -3.7195 -1.3848 0.0 0
M  V30 35 N -4.1807 0.3364 0.0 0
M  V30 36 O -4.0874 2.1159 0.0 0
M  V30 END ATOM
M  V30 BEGIN BOND
M  V30 1 1 1 2
M  V30 2 2 2 3
M  V30 3 1 2 4
M  V30 4 1 3 5
M  V30 5 1 3 6
M  V30 6 2 4 7
M  V30 7 2 6 8
M  V30 8 1 7 9
M  V30 9 1 9 10
M  V30 10 2 10 11
M  V30 11 1 10 12
M  V30 12 1 11 13
M  V30 13 2 12 14
M  V30 14 2 13 15
M  V30 15 1 13 16
M  V30 16 1 15 17
M  V30 17 1 16 18
M  V30 18 1 17 19
M  V30 19 1 18 20
M  V30 20 1 19 21
M  V30 21 1 21 22
M  V30 22 1 22 23
M  V30 23 1 23 24
M  V30 24 2 24 25
M  V30 25 1 24 26
M  V30 26 1 25 27
M  V30 27 2 26 28
M  V30 28 2 27 29
M  V30 29 1 30 27 CFG=3
M  V30 30 1 30 31
M  V30 31 1 30 32
M  V30 32 1 31 33
M  V30 33 2 32 34
M  V30 34 1 32 35
M  V30 35 2 33 36
M  V30 36 1 7 8
M  V30 37 1 14 15
M  V30 38 1 28 29
M  V30 39 1 33 35
M  V30 END BOND
M  V30 BEGIN COLLECTION
M  V30 MDLV30/STERAC1 ATOMS=(1 30)
M  V30 END COLLECTION
M  V30 END CTAB
M  END
>  <Molecule ChEMBL ID>
CHEMBL318684

>  <Smiles>
CCCc1cc(Oc2ccc(Cl)c(Cl)c2)ccc1OCCCOc1cccc(C2SC(=O)NC2=O)c1

>  <IC50_nM>
64

>  <Assay Description>
In vitro binding affinity against human peroxisome proliferator activated receptor gamma

$$$$
CHEMBL119496
Actelion Java MolfileCreator 2.0

  0  0  0  0  0  0              0 V3000
M  V30 BEGIN CTAB
M  V30 COUNTS 35 38 0 0 0
M  V30 BEGIN ATOM
M  V30 1 S 8.7077 -0.4067 0.0 0
M  V30 2 C 9.3769 0.3364 0.0 0
M  V30 3 C 7.7942 0.0 0.0 0 CFG=2
M  V30 4 O 10.3714 0.2318 0.0 0
M  V30 5 N 8.8769 1.2024 0.0 0
M  V30 6 C 6.9282 -0.5 0.0 0
M  V30 7 C 7.8987 0.9945 0.0 0
M  V30 8 C 6.0621 0.0 0.0 0
M  V30 9 C 6.9282 -1.5 0.0 0
M  V30 10 O 7.1556 1.6636 0.0 0
M  V30 11 C 5.1961 -0.5 0.0 0
M  V30 12 C 6.0621 -2.0 0.0 0
M  V30 13 O 4.3301 0.0 0.0 0
M  V30 14 C 5.1961 -1.5 0.0 0
M  V30 15 C 3.4641 -0.5 0.0 0
M  V30 16 C 2.598 0.0 0.0 0
M  V30 17 C 1.732 -0.5 0.0 0
M  V30 18 O 0.866 0.0 0.0 0
M  V30 19 C 0.0 -0.5 0.0 0
M  V30 20 C -0.866 0.0 0.0 0
M  V30 21 C 0.0 -1.4999 0.0 0
M  V30 22 C -1.732 -0.4999 0.0 0
M  V30 23 C -0.866 1.0 0.0 0
M  V30 24 C -0.866 -1.9999 0.0 0
M  V30 25 C -1.732 -1.4999 0.0 0
M  V30 26 C 0.0 1.5 0.0 0
M  V30 27 C -2.598 -1.9999 0.0 0
M  V30 28 C 0.0 2.5 0.0 0
M  V30 29 O -3.4641 -1.4999 0.0 0
M  V30 30 C -2.598 -2.9999 0.0 0
M  V30 31 C -3.4641 -3.4999 0.0 0
M  V30 32 C -1.732 -3.4999 0.0 0
M  V30 33 C -3.4641 -4.4999 0.0 0
M  V30 34 C -1.732 -4.4999 0.0 0
M  V30 35 C -2.598 -4.9999 0.0 0
M  V30 END ATOM
M  V30 BEGIN BOND
M  V30 1 1 1 2
M  V30 2 1 1 3
M  V30 3 2 2 4
M  V30 4 1 2 5
M  V30 5 1 3 6 CFG=3
M  V30 6 1 3 7
M  V30 7 2 6 8
M  V30 8 1 6 9
M  V30 9 2 7 10
M  V30 10 1 8 11
M  V30 11 2 9 12
M  V30 12 1 11 13
M  V30 13 2 11 14
M  V30 14 1 13 15
M  V30 15 1 15 16
M  V30 16 1 16 17
M  V30 17 1 17 18
M  V30 18 1 18 19
M  V30 19 2 19 20
M  V30 20 1 19 21
M  V30 21 1 20 22
M  V30 22 1 20 23
M  V30 23 2 21 24
M  V30 24 2 22 25
M  V30 25 1 23 26
M  V30 26 1 25 27
M  V30 27 1 26 28
M  V30 28 2 27 29
M  V30 29 1 27 30
M  V30 30 1 30 31
M  V30 31 1 30 32
M  V30 32 1 31 33
M  V30 33 1 32 34
M  V30 34 1 33 35
M  V30 35 1 5 7
M  V30 36 1 12 14
M  V30 37 1 24 25
M  V30 38 1 34 35
M  V30 END BOND
M  V30 BEGIN COLLECTION
M  V30 MDLV30/STERAC1 ATOMS=(1 3)
M  V30 END COLLECTION
M  V30 END CTAB
M  END
>  <Molecule ChEMBL ID>
CHEMBL119496

>  <Smiles>
CCCc1cc(C(=O)C2CCCCC2)ccc1OCCCOc1cccc(C2SC(=O)NC2=O)c1

>  <IC50_nM>
64

>  <Assay Description>
In vitro binding affinity against human peroxisome proliferator activated receptor gamma

$$$$
CHEMBL3695861
Actelion Java MolfileCreator 2.0

  0  0  0  0  0  0              0 V3000
M  V30 BEGIN CTAB
M  V30 COUNTS 39 43 0 0 0
M  V30 BEGIN ATOM
M  V30 1 O 5.1961 -0.7499 0.0 0
M  V30 2 C 3.8971 0.0 0.0 0
M  V30 3 N 2.598 -0.7499 0.0 0
M  V30 4 C 3.8971 1.5 0.0 0
M  V30 5 C 1.299 0.0 0.0 0 CFG=2
M  V30 6 C 2.598 2.2499 0.0 0
M  V30 7 C 5.1961 2.25 0.0 0
M  V30 8 C 0.0 -0.7499 0.0 0
M  V30 9 C 1.299 1.5 0.0 0
M  V30 10 C 2.598 3.75 0.0 0
M  V30 11 C 5.1961 3.75 0.0 0
M  V30 12 C 0.0 -2.25 0.0 0
M  V30 13 C -1.299 0.0 0.0 0
M  V30 14 C 3.8971 4.5 0.0 0
M  V30 15 C 1.4833 4.7536 0.0 0
M  V30 16 C -1.299 -2.9999 0.0 0
M  V30 17 C -2.598 -0.7499 0.0 0
M  V30 18 N 3.5852 5.9672 0.0 0
M  V30 19 C 2.0934 6.124 0.0 0
M  V30 20 C 0.0161 4.4418 0.0 0
M  V30 21 C -2.598 -2.2499 0.0 0
M  V30 22 C -1.299 -4.5 0.0 0
M  V30 23 C 4.5889 7.0819 0.0 0
M  V30 24 C 1.3434 7.423 0.0 0
M  V30 25 C -2.799 -4.5 0.0 0
M  V30 26 C -1.299 -5.9999 0.0 0
M  V30 27 C 0.2009 -4.4999 0.0 0
M  V30 28 C 4.1254 8.5085 0.0 0
M  V30 29 C 5.1291 9.6232 0.0 0
M  V30 30 C 2.6581 8.8203 0.0 0
M  V30 31 C 4.6655 11.0498 0.0 0
M  V30 32 C 2.1946 10.2469 0.0 0
M  V30 33 C 3.1983 11.3616 0.0 0
M  V30 34 C 2.7348 12.7882 0.0 0
M  V30 35 C 3.7385 13.9029 0.0 0
M  V30 36 C 1.2676 13.1001 0.0 0
M  V30 37 C 3.275 15.3295 0.0 0
M  V30 38 C 0.804 14.5267 0.0 0
M  V30 39 C 1.8077 15.6414 0.0 0
M  V30 END ATOM
M  V30 BEGIN BOND
M  V30 1 2 1 2
M  V30 2 1 2 3
M  V30 3 1 2 4
M  V30 4 1 3 5
M  V30 5 2 4 6
M  V30 6 1 4 7
M  V30 7 1 5 8
M  V30 8 1 5 9 CFG=3
M  V30 9 1 6 10
M  V30 10 2 7 11
M  V30 11 2 8 12
M  V30 12 1 8 13
M  V30 13 2 10 14
M  V30 14 1 10 15
M  V30 15 1 12 16
M  V30 16 2 13 17
M  V30 17 1 14 18
M  V30 18 2 15 19
M  V30 19 1 15 20
M  V30 20 2 16 21
M  V30 21 1 16 22
M  V30 22 1 18 23
M  V30 23 1 19 24
M  V30 24 1 22 25
M  V30 25 1 22 26
M  V30 26 1 22 27
M  V30 27 1 23 28
M  V30 28 2 28 29
M  V30 29 1 28 30
M  V30 30 1 29 31
M  V30 31 2 30 32
M  V30 32 2 31 33
M  V30 33 1 33 34
M  V30 34 2 34 35
M  V30 35 1 34 36
M  V30 36 1 35 37
M  V30 37 2 36 38
M  V30 38 2 37 39
M  V30 39 1 11 14
M  V30 40 1 17 21
M  V30 41 1 18 19
M  V30 42 1 32 33
M  V30 43 1 38 39
M  V30 END BOND
M  V30 BEGIN COLLECTION
M  V30 MDLV30/STEABS ATOMS=(1 5)
M  V30 END COLLECTION
M  V30 END CTAB
M  END
>  <Molecule ChEMBL ID>
CHEMBL3695861

>  <Smiles>
Cc1c(C)n(Cc2ccc(-c3ccccc3)cc2)c2ccc(C(=O)N[C@@H](C)c3cccc(C(C)(C)C)c3)cc12

>  <IC50_nM>
65

>  <Assay Description>
Lanthascreen Competitive Binding Assay: The assay was performed according to manufacturer protocol. A mixture of nM GST-PPARG-LBD, 5 nM Tb-GST-antibody, 5 nM Fluormone Pan-PPAR Green, and serial dilutions of the experimental compound, beginning at 10 ׬M downwards, was added to wells of black 384-well low-volume plates (Greiner) to a total volume of 18 ׬L. All dilutions were made in TR-FRET assay buffer C. DMSO at 2% final concentration was used as a no-ligand control. Experiment was performed in triplicate, and incubated for 2 hours in the dark prior to assay read in Perkin Elmer ViewLux ultra HTS microplate reader. FRET signal was measured by excitation at 340 nm and emission at 520 nm for fluorescein and 490 nm for terbium. Fold change over DMSO was calculated using GraphPad Prism Software (La Jolla, Calif.) by calculating 520 nm/490 nm ratio. Graphs were plotted as fold change of FRET signal for compound treatment over DMSO-only control.

$$$$
CHEMBL2338483
Actelion Java MolfileCreator 2.0

  0  0  0  0  0  0              0 V3000
M  V30 BEGIN CTAB
M  V30 COUNTS 30 32 0 0 0
M  V30 BEGIN ATOM
M  V30 1 Cl 2.598 2.25 0.0 0
M  V30 2 C 3.8971 1.5 0.0 0
M  V30 3 C 3.8971 0.0 0.0 0
M  V30 4 C 5.1961 2.25 0.0 0
M  V30 5 S 2.598 -0.75 0.0 0
M  V30 6 C 5.1961 -0.75 0.0 0
M  V30 7 C 6.4951 1.5 0.0 0
M  V30 8 O 1.848 -2.049 0.0 0
M  V30 9 O 3.348 -2.049 0.0 0
M  V30 10 N 1.299 0.0 0.0 0
M  V30 11 C 6.4951 0.0 0.0 0
M  V30 12 Cl 7.7942 2.25 0.0 0
M  V30 13 C 0.0 -0.75 0.0 0
M  V30 14 C -1.299 0.0 0.0 0
M  V30 15 C 0.0 -2.25 0.0 0
M  V30 16 C -2.598 -0.75 0.0 0
M  V30 17 C -1.299 -3.0 0.0 0
M  V30 18 C -2.598 -2.25 0.0 0
M  V30 19 C -3.8971 0.0 0.0 0
M  V30 20 O -3.8971 -3.0 0.0 0
M  V30 21 F -4.6471 -1.299 0.0 0
M  V30 22 F -5.1961 0.75 0.0 0
M  V30 23 F -3.1471 1.299 0.0 0
M  V30 24 C -3.8971 -4.5 0.0 0
M  V30 25 C -5.1961 -5.25 0.0 0
M  V30 26 C -2.598 -5.25 0.0 0
M  V30 27 N -5.1961 -6.75 0.0 0
M  V30 28 C -2.598 -6.75 0.0 0
M  V30 29 C -3.8971 -7.5 0.0 0
M  V30 30 Cl -1.299 -7.5 0.0 0
M  V30 END ATOM
M  V30 BEGIN BOND
M  V30 1 1 1 2
M  V30 2 2 2 3
M  V30 3 1 2 4
M  V30 4 1 3 5
M  V30 5 1 3 6
M  V30 6 2 4 7
M  V30 7 2 5 8
M  V30 8 2 5 9
M  V30 9 1 5 10
M  V30 10 2 6 11
M  V30 11 1 7 12
M  V30 12 1 10 13
M  V30 13 2 13 14
M  V30 14 1 13 15
M  V30 15 1 14 16
M  V30 16 2 15 17
M  V30 17 2 16 18
M  V30 18 1 16 19
M  V30 19 1 18 20
M  V30 20 1 19 21
M  V30 21 1 19 22
M  V30 22 1 19 23
M  V30 23 1 20 24
M  V30 24 2 24 25
M  V30 25 1 24 26
M  V30 26 1 25 27
M  V30 27 2 26 28
M  V30 28 2 27 29
M  V30 29 1 28 30
M  V30 30 1 7 11
M  V30 31 1 17 18
M  V30 32 1 28 29
M  V30 END BOND
M  V30 END CTAB
M  END
>  <Molecule ChEMBL ID>
CHEMBL2338483

>  <Smiles>
O=S(=O)(Nc1ccc(Oc2cncc(Cl)c2)c(C(F)(F)F)c1)c1ccc(Cl)cc1Cl

>  <IC50_nM>
66

>  <Assay Description>
Displacement of [3H]-rosiglitazone from GST-tagged PPARgammaLBD (unknown origin) after 1 hr by scintillation proximity assay

$$$$
CHEMBL1946952
Actelion Java MolfileCreator 2.0

  0  0  0  0  0  0              0 V3000
M  V30 BEGIN CTAB
M  V30 COUNTS 39 43 0 0 0
M  V30 BEGIN ATOM
M  V30 1 Cl 4.3301 0.9999 0.0 0
M  V30 2 C 4.3301 0.0 0.0 0
M  V30 3 C 3.4641 -0.5 0.0 0
M  V30 4 C 5.1961 -0.5 0.0 0
M  V30 5 O 2.598 0.0 0.0 0
M  V30 6 C 3.4641 -1.5 0.0 0
M  V30 7 C 5.1961 -1.5 0.0 0
M  V30 8 C 1.732 -0.5 0.0 0 CFG=2
M  V30 9 C 4.3301 -2.0 0.0 0
M  V30 10 C 0.866 0.0 0.0 0
M  V30 11 C 1.732 -1.5 0.0 0
M  V30 12 C 4.3301 -3.0 0.0 0
M  V30 13 O 0.866 1.0 0.0 0
M  V30 14 O 0.0 -0.5 0.0 0
M  V30 15 N 5.1961 -3.5 0.0 0
M  V30 16 C 5.3006 -4.4945 0.0 0
M  V30 17 C 6.1096 -3.0932 0.0 0
M  V30 18 O 4.5575 -5.1636 0.0 0
M  V30 19 N 6.2788 -4.7024 0.0 0
M  V30 20 C 6.7788 -3.8364 0.0 0
M  V30 21 C 6.4187 -2.1422 0.0 0
M  V30 22 C 6.6855 -5.6159 0.0 0
M  V30 23 C 7.7569 -3.6284 0.0 0
M  V30 24 C 7.3968 -1.9342 0.0 0
M  V30 25 N 6.1855 -6.482 0.0 0
M  V30 26 C 7.6637 -5.8238 0.0 0
M  V30 27 C 8.0659 -2.6774 0.0 0
M  V30 28 C 7.7058 -0.9832 0.0 0
M  V30 29 O 6.8546 -7.2251 0.0 0
M  V30 30 C 7.7682 -6.8184 0.0 0
M  V30 31 C 8.4727 -5.2361 0.0 0
M  V30 32 F 6.7548 -0.6742 0.0 0
M  V30 33 F 8.0148 -0.0321 0.0 0
M  V30 34 F 8.6569 -1.2922 0.0 0
M  V30 35 C 8.6817 -7.2251 0.0 0
M  V30 36 C 9.3862 -5.6428 0.0 0
M  V30 37 C 9.4908 -6.6373 0.0 0
M  V30 38 O 10.4043 -7.0441 0.0 0
M  V30 39 C 11.2133 -6.4563 0.0 0
M  V30 END ATOM
M  V30 BEGIN BOND
M  V30 1 1 1 2
M  V30 2 2 2 3
M  V30 3 1 2 4
M  V30 4 1 3 5
M  V30 5 1 3 6
M  V30 6 2 4 7
M  V30 7 1 5 8
M  V30 8 2 6 9
M  V30 9 1 8 10
M  V30 10 1 8 11 CFG=1
M  V30 11 1 9 12
M  V30 12 2 10 13
M  V30 13 1 10 14
M  V30 14 1 12 15
M  V30 15 1 15 16
M  V30 16 1 15 17
M  V30 17 2 16 18
M  V30 18 1 16 19
M  V30 19 2 17 20
M  V30 20 1 17 21
M  V30 21 1 19 22
M  V30 22 1 20 23
M  V30 23 2 21 24
M  V30 24 2 22 25
M  V30 25 1 22 26
M  V30 26 2 23 27
M  V30 27 1 24 28
M  V30 28 1 25 29
M  V30 29 2 26 30
M  V30 30 1 26 31
M  V30 31 1 28 32
M  V30 32 1 28 33
M  V30 33 1 28 34
M  V30 34 1 30 35
M  V30 35 2 31 36
M  V30 36 2 35 37
M  V30 37 1 37 38
M  V30 38 1 38 39
M  V30 39 1 7 9
M  V30 40 1 19 20
M  V30 41 1 24 27
M  V30 42 1 29 30
M  V30 43 1 36 37
M  V30 END BOND
M  V30 BEGIN COLLECTION
M  V30 MDLV30/STEABS ATOMS=(1 8)
M  V30 END COLLECTION
M  V30 END CTAB
M  END
>  <Molecule ChEMBL ID>
CHEMBL1946952

>  <Smiles>
COc1ccc2c(-n3c(=O)n(Cc4ccc(Cl)c(O[C@@H](C)C(=O)O)c4)c4cc(C(F)(F)F)ccc43)noc2c1

>  <IC50_nM>
66

>  <Assay Description>
Binding affinity to human PPARgamma by scintillation proximity assay

$$$$
CHEMBL455126
Actelion Java MolfileCreator 2.0

  0  0  0  0  0  0              0 V3000
M  V30 BEGIN CTAB
M  V30 COUNTS 33 36 0 0 0
M  V30 BEGIN ATOM
M  V30 1 O 7.8298 -3.4249 0.0 0
M  V30 2 C 8.4176 -2.6159 0.0 0
M  V30 3 C 9.4121 -2.7205 0.0 0
M  V30 4 C 8.0108 -1.7024 0.0 0
M  V30 5 C 9.8188 -3.634 0.0 0
M  V30 6 C 9.9999 -1.9114 0.0 0
M  V30 7 C 8.5108 -0.8364 0.0 0
M  V30 8 C 7.0327 -1.4945 0.0 0
M  V30 9 C 10.8133 -3.7385 0.0 0
M  V30 10 C 10.9944 -2.016 0.0 0
M  V30 11 C 7.8417 -0.0932 0.0 0
M  V30 12 C 9.489 -0.6284 0.0 0
M  V30 13 N 6.9282 -0.5 0.0 0
M  V30 14 C 6.2895 -2.1636 0.0 0
M  V30 15 C 11.4011 -2.9295 0.0 0
M  V30 16 N 8.1507 0.8577 0.0 0
M  V30 17 C 9.798 0.3225 0.0 0
M  V30 18 C 6.0621 0.0 0.0 0
M  V30 19 O 12.3957 -3.034 0.0 0
M  V30 20 C 9.1289 1.0657 0.0 0
M  V30 21 C 5.1961 -0.5 0.0 0
M  V30 22 C 12.9834 -2.225 0.0 0
M  V30 23 C 4.3301 0.0 0.0 0
M  V30 24 C 5.1961 -1.4999 0.0 0
M  V30 25 C 3.4641 -0.5 0.0 0
M  V30 26 C 4.3301 -1.9999 0.0 0
M  V30 27 O 2.598 0.0 0.0 0
M  V30 28 C 3.4641 -1.4999 0.0 0
M  V30 29 C 1.732 -0.5 0.0 0 CFG=2
M  V30 30 C 0.866 0.0 0.0 0
M  V30 31 C 1.732 -1.5 0.0 0
M  V30 32 O 0.866 1.0 0.0 0
M  V30 33 O 0.0 -0.5 0.0 0
M  V30 END ATOM
M  V30 BEGIN BOND
M  V30 1 2 1 2
M  V30 2 1 2 3
M  V30 3 1 2 4
M  V30 4 2 3 5
M  V30 5 1 3 6
M  V30 6 1 4 7
M  V30 7 2 4 8
M  V30 8 1 5 9
M  V30 9 2 6 10
M  V30 10 2 7 11
M  V30 11 1 7 12
M  V30 12 1 8 13
M  V30 13 1 8 14
M  V30 14 2 9 15
M  V30 15 1 11 16
M  V30 16 2 12 17
M  V30 17 1 13 18
M  V30 18 1 15 19
M  V30 19 2 16 20
M  V30 20 1 18 21
M  V30 21 1 19 22
M  V30 22 2 21 23
M  V30 23 1 21 24
M  V30 24 1 23 25
M  V30 25 2 24 26
M  V30 26 1 25 27
M  V30 27 2 25 28
M  V30 28 1 27 29
M  V30 29 1 29 30
M  V30 30 1 29 31 CFG=1
M  V30 31 2 30 32
M  V30 32 1 30 33
M  V30 33 1 10 15
M  V30 34 1 11 13
M  V30 35 1 17 20
M  V30 36 1 26 28
M  V30 END BOND
M  V30 BEGIN COLLECTION
M  V30 MDLV30/STEABS ATOMS=(1 29)
M  V30 END COLLECTION
M  V30 END CTAB
M  END
>  <Molecule ChEMBL ID>
CHEMBL455126

>  <Smiles>
COc1ccc(C(=O)c2c(C)n(Cc3cccc(O[C@@H](C)C(=O)O)c3)c3ncccc23)cc1

>  <IC50_nM>
66

>  <Assay Description>
Displacement of [3H]2AD-5075 from GST-tagged human PPARgamma receptor expressed in Escherichia coli BL21

$$$$
CHEMBL4443931
Actelion Java MolfileCreator 2.0

  0  0  0  0  0  0              0 V3000
M  V30 BEGIN CTAB
M  V30 COUNTS 42 46 0 0 0
M  V30 BEGIN ATOM
M  V30 1 O 11.8592 -3.5669 0.0 0
M  V30 2 C 10.8811 -3.7748 0.0 0
M  V30 3 O 10.212 -3.0316 0.0 0
M  V30 4 C 10.5721 -4.7258 0.0 0
M  V30 5 C 9.5939 -4.9337 0.0 0
M  V30 6 C 11.2412 -5.469 0.0 0
M  V30 7 C 8.9248 -4.1906 0.0 0
M  V30 8 C 9.2849 -5.8848 0.0 0
M  V30 9 C 10.9322 -6.42 0.0 0
M  V30 10 C 9.2338 -3.2395 0.0 0
M  V30 11 C 7.9466 -4.3985 0.0 0
M  V30 12 C 9.954 -6.6279 0.0 0
M  V30 13 C 8.5647 -2.4964 0.0 0
M  V30 14 C 7.2775 -3.6554 0.0 0
M  V30 15 C 7.5865 -2.7043 0.0 0
M  V30 16 C 6.9174 -1.9612 0.0 0
M  V30 17 N 5.9392 -2.1691 0.0 0
M  V30 18 C 5.1961 -1.4999 0.0 0
M  V30 19 C 5.5325 -3.0826 0.0 0
M  V30 20 C 4.3301 -1.9999 0.0 0
M  V30 21 C 5.1961 -0.4999 0.0 0
M  V30 22 C 4.538 -2.9781 0.0 0
M  V30 23 C 6.0325 -3.9487 0.0 0
M  V30 24 C 3.4641 -1.5 0.0 0
M  V30 25 C 4.3301 0.0 0.0 0
M  V30 26 C 3.8689 -3.7212 0.0 0
M  V30 27 C 3.4641 -0.5 0.0 0
M  V30 28 C 2.598 0.0 0.0 0
M  V30 29 O 2.598 1.0 0.0 0
M  V30 30 N 1.732 -0.5 0.0 0
M  V30 31 C 0.866 0.0 0.0 0
M  V30 32 C 0.0 -0.5 0.0 0
M  V30 33 C -0.866 0.0 0.0 0
M  V30 34 C 0.0 -1.4999 0.0 0
M  V30 35 C -1.732 -0.4999 0.0 0
M  V30 36 C -0.866 -1.9999 0.0 0
M  V30 37 O -2.598 0.0 0.0 0
M  V30 38 C -1.732 -1.4999 0.0 0
M  V30 39 C -3.4641 -0.4999 0.0 0
M  V30 40 C -4.3301 0.0 0.0 0
M  V30 41 O -4.3301 1.0 0.0 0
M  V30 42 O -5.1961 -0.4999 0.0 0
M  V30 END ATOM
M  V30 BEGIN BOND
M  V30 1 2 1 2
M  V30 2 1 2 3
M  V30 3 1 2 4
M  V30 4 2 4 5
M  V30 5 1 4 6
M  V30 6 1 5 7
M  V30 7 1 5 8
M  V30 8 2 6 9
M  V30 9 2 7 10
M  V30 10 1 7 11
M  V30 11 2 8 12
M  V30 12 1 10 13
M  V30 13 2 11 14
M  V30 14 2 13 15
M  V30 15 1 15 16
M  V30 16 1 16 17
M  V30 17 1 17 18
M  V30 18 1 17 19
M  V30 19 2 18 20
M  V30 20 1 18 21
M  V30 21 2 19 22
M  V30 22 1 19 23
M  V30 23 1 20 24
M  V30 24 2 21 25
M  V30 25 1 22 26
M  V30 26 2 24 27
M  V30 27 1 27 28
M  V30 28 2 28 29
M  V30 29 1 28 30
M  V30 30 1 30 31
M  V30 31 1 31 32
M  V30 32 2 32 33
M  V30 33 1 32 34
M  V30 34 1 33 35
M  V30 35 2 34 36
M  V30 36 1 35 37
M  V30 37 2 35 38
M  V30 38 1 37 39
M  V30 39 1 39 40
M  V30 40 2 40 41
M  V30 41 1 40 42
M  V30 42 1 9 12
M  V30 43 1 14 15
M  V30 44 1 20 22
M  V30 45 1 25 27
M  V30 46 1 36 38
M  V30 END BOND
M  V30 END CTAB
M  END
>  <Molecule ChEMBL ID>
CHEMBL4443931

>  <Smiles>
Cc1c(C)n(Cc2ccc(-c3ccccc3C(=O)O)cc2)c2ccc(C(=O)NCc3cccc(OCC(=O)O)c3)cc12

>  <IC50_nM>
66

>  <Assay Description>
Displacement of fluormone PPAR green tracer ligand from recombinant GST-tagged PPARgamma ligand binding domain (unknown origin) incubated for 4 hrs by competitive fluorescence polarization binding assay

$$$$
CHEMBL429823
Actelion Java MolfileCreator 2.0

  0  0  0  0  0  0              0 V3000
M  V30 BEGIN CTAB
M  V30 COUNTS 38 42 0 0 0
M  V30 BEGIN ATOM
M  V30 1 O 5.1961 2.25 0.0 0
M  V30 2 C 3.8971 1.5 0.0 0
M  V30 3 O 2.598 2.25 0.0 0
M  V30 4 C 3.8971 0.0 0.0 0
M  V30 5 N 2.598 -0.75 0.0 0
M  V30 6 C 2.598 -2.25 0.0 0
M  V30 7 C 1.299 0.0 0.0 0
M  V30 8 C 3.8971 -3.0 0.0 0
M  V30 9 C 0.0 -0.75 0.0 0
M  V30 10 C 5.1961 -2.2499 0.0 0
M  V30 11 C 3.8971 -4.5 0.0 0
M  V30 12 C -1.299 0.0 0.0 0
M  V30 13 C 0.0 -2.25 0.0 0
M  V30 14 C 6.4951 -2.9999 0.0 0
M  V30 15 C 5.1961 -0.75 0.0 0
M  V30 16 C 5.1961 -5.25 0.0 0
M  V30 17 C -2.598 -0.7499 0.0 0
M  V30 18 C -1.299 -2.9999 0.0 0
M  V30 19 C 6.4951 -4.5 0.0 0
M  V30 20 C 7.7942 -2.2499 0.0 0
M  V30 21 C 6.4951 0.0 0.0 0
M  V30 22 O -3.8971 0.0 0.0 0
M  V30 23 C -2.598 -2.2499 0.0 0
M  V30 24 C 7.7942 -0.7499 0.0 0
M  V30 25 C -5.1961 -0.7499 0.0 0
M  V30 26 C -6.4951 0.0 0.0 0
M  V30 27 C -7.7942 -0.7499 0.0 0
M  V30 28 N -9.1645 -0.1398 0.0 0
M  V30 29 C -7.951 -2.2417 0.0 0
M  V30 30 C -10.1682 -1.2546 0.0 0
M  V30 31 O -9.4182 -2.5536 0.0 0
M  V30 32 C -6.8363 -3.2454 0.0 0
M  V30 33 C -11.66 -1.0978 0.0 0
M  V30 34 C -12.2701 0.2724 0.0 0
M  V30 35 C -12.5417 -2.3113 0.0 0
M  V30 36 C -13.7619 0.4292 0.0 0
M  V30 37 C -14.0334 -2.1545 0.0 0
M  V30 38 C -14.6435 -0.7842 0.0 0
M  V30 END ATOM
M  V30 BEGIN BOND
M  V30 1 2 1 2
M  V30 2 1 2 3
M  V30 3 1 2 4
M  V30 4 1 4 5
M  V30 5 1 5 6
M  V30 6 1 5 7
M  V30 7 1 6 8
M  V30 8 1 7 9
M  V30 9 1 8 10
M  V30 10 2 8 11
M  V30 11 2 9 12
M  V30 12 1 9 13
M  V30 13 1 10 14
M  V30 14 2 10 15
M  V30 15 1 11 16
M  V30 16 1 12 17
M  V30 17 2 13 18
M  V30 18 1 14 19
M  V30 19 2 14 20
M  V30 20 1 15 21
M  V30 21 1 17 22
M  V30 22 2 17 23
M  V30 23 1 20 24
M  V30 24 1 22 25
M  V30 25 1 25 26
M  V30 26 1 26 27
M  V30 27 1 27 28
M  V30 28 2 27 29
M  V30 29 2 28 30
M  V30 30 1 29 31
M  V30 31 1 29 32
M  V30 32 1 30 33
M  V30 33 2 33 34
M  V30 34 1 33 35
M  V30 35 1 34 36
M  V30 36 2 35 37
M  V30 37 2 36 38
M  V30 38 2 16 19
M  V30 39 1 18 23
M  V30 40 2 21 24
M  V30 41 1 30 31
M  V30 42 1 37 38
M  V30 END BOND
M  V30 END CTAB
M  END
>  <Molecule ChEMBL ID>
CHEMBL429823

>  <Smiles>
Cc1oc(-c2ccccc2)nc1CCOc1cccc(CN(CC(=O)O)Cc2cccc3ccccc23)c1

>  <IC50_nM>
67

>  <Assay Description>
Displacement of fluorescein labeled ligand from PPARgamma receptor by fluorescence polarization assay

$$$$
CHEMBL121
Actelion Java MolfileCreator 2.0

  0  0  0  0  0  0              0 V3000
M  V30 BEGIN CTAB
M  V30 COUNTS 25 27 0 0 0
M  V30 BEGIN ATOM
M  V30 1 S 7.8987 0.0054 0.0 0
M  V30 2 C 8.8769 -0.2024 0.0 0
M  V30 3 C 7.7942 0.9999 0.0 0 CFG=2
M  V30 4 O 9.2836 -1.1159 0.0 0
M  V30 5 N 9.3769 0.6635 0.0 0
M  V30 6 C 8.7077 1.4067 0.0 0
M  V30 7 C 6.9282 1.4999 0.0 0
M  V30 8 O 8.9156 2.3848 0.0 0
M  V30 9 C 6.0621 0.9999 0.0 0
M  V30 10 C 5.1961 1.4999 0.0 0
M  V30 11 C 6.0621 0.0 0.0 0
M  V30 12 C 4.3301 0.9999 0.0 0
M  V30 13 C 5.1961 -0.5 0.0 0
M  V30 14 C 4.3301 0.0 0.0 0
M  V30 15 O 3.4641 -0.5 0.0 0
M  V30 16 C 2.598 0.0 0.0 0
M  V30 17 C 1.732 -0.5 0.0 0
M  V30 18 N 0.866 0.0 0.0 0
M  V30 19 C 0.866 1.0 0.0 0
M  V30 20 C 0.0 -0.5 0.0 0
M  V30 21 N 1.732 1.4999 0.0 0
M  V30 22 C 0.0 1.4999 0.0 0
M  V30 23 C 1.732 2.5 0.0 0
M  V30 24 C 0.0 2.5 0.0 0
M  V30 25 C 0.866 3.0 0.0 0
M  V30 END ATOM
M  V30 BEGIN BOND
M  V30 1 1 1 2
M  V30 2 1 1 3
M  V30 3 2 2 4
M  V30 4 1 2 5
M  V30 5 1 3 6
M  V30 6 1 3 7 CFG=1
M  V30 7 2 6 8
M  V30 8 1 7 9
M  V30 9 2 9 10
M  V30 10 1 9 11
M  V30 11 1 10 12
M  V30 12 2 11 13
M  V30 13 2 12 14
M  V30 14 1 14 15
M  V30 15 1 15 16
M  V30 16 1 16 17
M  V30 17 1 17 18
M  V30 18 1 18 19
M  V30 19 1 18 20
M  V30 20 2 19 21
M  V30 21 1 19 22
M  V30 22 1 21 23
M  V30 23 2 22 24
M  V30 24 2 23 25
M  V30 25 1 5 6
M  V30 26 1 13 14
M  V30 27 1 24 25
M  V30 END BOND
M  V30 BEGIN COLLECTION
M  V30 MDLV30/STERAC1 ATOMS=(1 3)
M  V30 END COLLECTION
M  V30 END CTAB
M  END
>  <Molecule ChEMBL ID>
CHEMBL121

>  <Smiles>
CN(CCOc1ccc(CC2SC(=O)NC2=O)cc1)c1ccccn1

>  <IC50_nM>
67

>  <Assay Description>
Displacement of [3H]2-methyl-2-(4-{3-[porpyl-(5-pyridin-2yl-thiophene-2-sulfonyl)-amino]-propyl}-phenoxy)-propionic acid from human PPARgamma

$$$$
CHEMBL121
Actelion Java MolfileCreator 2.0

  0  0  0  0  0  0              0 V3000
M  V30 BEGIN CTAB
M  V30 COUNTS 25 27 0 0 0
M  V30 BEGIN ATOM
M  V30 1 S 7.8987 0.0054 0.0 0
M  V30 2 C 8.8769 -0.2024 0.0 0
M  V30 3 C 7.7942 0.9999 0.0 0 CFG=2
M  V30 4 O 9.2836 -1.1159 0.0 0
M  V30 5 N 9.3769 0.6635 0.0 0
M  V30 6 C 8.7077 1.4067 0.0 0
M  V30 7 C 6.9282 1.4999 0.0 0
M  V30 8 O 8.9156 2.3848 0.0 0
M  V30 9 C 6.0621 0.9999 0.0 0
M  V30 10 C 5.1961 1.4999 0.0 0
M  V30 11 C 6.0621 0.0 0.0 0
M  V30 12 C 4.3301 0.9999 0.0 0
M  V30 13 C 5.1961 -0.5 0.0 0
M  V30 14 C 4.3301 0.0 0.0 0
M  V30 15 O 3.4641 -0.5 0.0 0
M  V30 16 C 2.598 0.0 0.0 0
M  V30 17 C 1.732 -0.5 0.0 0
M  V30 18 N 0.866 0.0 0.0 0
M  V30 19 C 0.866 1.0 0.0 0
M  V30 20 C 0.0 -0.5 0.0 0
M  V30 21 N 1.732 1.4999 0.0 0
M  V30 22 C 0.0 1.4999 0.0 0
M  V30 23 C 1.732 2.5 0.0 0
M  V30 24 C 0.0 2.5 0.0 0
M  V30 25 C 0.866 3.0 0.0 0
M  V30 END ATOM
M  V30 BEGIN BOND
M  V30 1 1 1 2
M  V30 2 1 1 3
M  V30 3 2 2 4
M  V30 4 1 2 5
M  V30 5 1 3 6
M  V30 6 1 3 7 CFG=1
M  V30 7 2 6 8
M  V30 8 1 7 9
M  V30 9 2 9 10
M  V30 10 1 9 11
M  V30 11 1 10 12
M  V30 12 2 11 13
M  V30 13 2 12 14
M  V30 14 1 14 15
M  V30 15 1 15 16
M  V30 16 1 16 17
M  V30 17 1 17 18
M  V30 18 1 18 19
M  V30 19 1 18 20
M  V30 20 2 19 21
M  V30 21 1 19 22
M  V30 22 1 21 23
M  V30 23 2 22 24
M  V30 24 2 23 25
M  V30 25 1 5 6
M  V30 26 1 13 14
M  V30 27 1 24 25
M  V30 END BOND
M  V30 BEGIN COLLECTION
M  V30 MDLV30/STERAC1 ATOMS=(1 3)
M  V30 END COLLECTION
M  V30 END CTAB
M  END
>  <Molecule ChEMBL ID>
CHEMBL121

>  <Smiles>
CN(CCOc1ccc(CC2SC(=O)NC2=O)cc1)c1ccccn1

>  <IC50_nM>
67

>  <Assay Description>
Displacement of [3H]2-methyl-2-(4-{3-{propyl-(5-pyridin-2-yl-thiophene-2-sulfonyl)-amino}-propyl}-phenoxy)-propionic acid from human PPARgamma

$$$$
CHEMBL121
Actelion Java MolfileCreator 2.0

  0  0  0  0  0  0              0 V3000
M  V30 BEGIN CTAB
M  V30 COUNTS 25 27 0 0 0
M  V30 BEGIN ATOM
M  V30 1 S 7.8987 0.0054 0.0 0
M  V30 2 C 8.8769 -0.2024 0.0 0
M  V30 3 C 7.7942 0.9999 0.0 0 CFG=2
M  V30 4 O 9.2836 -1.1159 0.0 0
M  V30 5 N 9.3769 0.6635 0.0 0
M  V30 6 C 8.7077 1.4067 0.0 0
M  V30 7 C 6.9282 1.4999 0.0 0
M  V30 8 O 8.9156 2.3848 0.0 0
M  V30 9 C 6.0621 0.9999 0.0 0
M  V30 10 C 5.1961 1.4999 0.0 0
M  V30 11 C 6.0621 0.0 0.0 0
M  V30 12 C 4.3301 0.9999 0.0 0
M  V30 13 C 5.1961 -0.5 0.0 0
M  V30 14 C 4.3301 0.0 0.0 0
M  V30 15 O 3.4641 -0.5 0.0 0
M  V30 16 C 2.598 0.0 0.0 0
M  V30 17 C 1.732 -0.5 0.0 0
M  V30 18 N 0.866 0.0 0.0 0
M  V30 19 C 0.866 1.0 0.0 0
M  V30 20 C 0.0 -0.5 0.0 0
M  V30 21 N 1.732 1.4999 0.0 0
M  V30 22 C 0.0 1.4999 0.0 0
M  V30 23 C 1.732 2.5 0.0 0
M  V30 24 C 0.0 2.5 0.0 0
M  V30 25 C 0.866 3.0 0.0 0
M  V30 END ATOM
M  V30 BEGIN BOND
M  V30 1 1 1 2
M  V30 2 1 1 3
M  V30 3 2 2 4
M  V30 4 1 2 5
M  V30 5 1 3 6
M  V30 6 1 3 7 CFG=1
M  V30 7 2 6 8
M  V30 8 1 7 9
M  V30 9 2 9 10
M  V30 10 1 9 11
M  V30 11 1 10 12
M  V30 12 2 11 13
M  V30 13 2 12 14
M  V30 14 1 14 15
M  V30 15 1 15 16
M  V30 16 1 16 17
M  V30 17 1 17 18
M  V30 18 1 18 19
M  V30 19 1 18 20
M  V30 20 2 19 21
M  V30 21 1 19 22
M  V30 22 1 21 23
M  V30 23 2 22 24
M  V30 24 2 23 25
M  V30 25 1 5 6
M  V30 26 1 13 14
M  V30 27 1 24 25
M  V30 END BOND
M  V30 BEGIN COLLECTION
M  V30 MDLV30/STERAC1 ATOMS=(1 3)
M  V30 END COLLECTION
M  V30 END CTAB
M  END
>  <Molecule ChEMBL ID>
CHEMBL121

>  <Smiles>
CN(CCOc1ccc(CC2SC(=O)NC2=O)cc1)c1ccccn1

>  <IC50_nM>
67

>  <Assay Description>
Displacement of [3H]2-methyl-2-(4-{3-propyl-(5-pyridin-2yl-thiophene-2-sulfonyl)-amino]-pro-pyl}-phenoxy)-propionic acid from human PPARgamma

$$$$
CHEMBL121
Actelion Java MolfileCreator 2.0

  0  0  0  0  0  0              0 V3000
M  V30 BEGIN CTAB
M  V30 COUNTS 25 27 0 0 0
M  V30 BEGIN ATOM
M  V30 1 S 7.8987 0.0054 0.0 0
M  V30 2 C 8.8769 -0.2024 0.0 0
M  V30 3 C 7.7942 0.9999 0.0 0 CFG=2
M  V30 4 O 9.2836 -1.1159 0.0 0
M  V30 5 N 9.3769 0.6635 0.0 0
M  V30 6 C 8.7077 1.4067 0.0 0
M  V30 7 C 6.9282 1.4999 0.0 0
M  V30 8 O 8.9156 2.3848 0.0 0
M  V30 9 C 6.0621 0.9999 0.0 0
M  V30 10 C 5.1961 1.4999 0.0 0
M  V30 11 C 6.0621 0.0 0.0 0
M  V30 12 C 4.3301 0.9999 0.0 0
M  V30 13 C 5.1961 -0.5 0.0 0
M  V30 14 C 4.3301 0.0 0.0 0
M  V30 15 O 3.4641 -0.5 0.0 0
M  V30 16 C 2.598 0.0 0.0 0
M  V30 17 C 1.732 -0.5 0.0 0
M  V30 18 N 0.866 0.0 0.0 0
M  V30 19 C 0.866 1.0 0.0 0
M  V30 20 C 0.0 -0.5 0.0 0
M  V30 21 N 1.732 1.4999 0.0 0
M  V30 22 C 0.0 1.4999 0.0 0
M  V30 23 C 1.732 2.5 0.0 0
M  V30 24 C 0.0 2.5 0.0 0
M  V30 25 C 0.866 3.0 0.0 0
M  V30 END ATOM
M  V30 BEGIN BOND
M  V30 1 1 1 2
M  V30 2 1 1 3
M  V30 3 2 2 4
M  V30 4 1 2 5
M  V30 5 1 3 6
M  V30 6 1 3 7 CFG=1
M  V30 7 2 6 8
M  V30 8 1 7 9
M  V30 9 2 9 10
M  V30 10 1 9 11
M  V30 11 1 10 12
M  V30 12 2 11 13
M  V30 13 2 12 14
M  V30 14 1 14 15
M  V30 15 1 15 16
M  V30 16 1 16 17
M  V30 17 1 17 18
M  V30 18 1 18 19
M  V30 19 1 18 20
M  V30 20 2 19 21
M  V30 21 1 19 22
M  V30 22 1 21 23
M  V30 23 2 22 24
M  V30 24 2 23 25
M  V30 25 1 5 6
M  V30 26 1 13 14
M  V30 27 1 24 25
M  V30 END BOND
M  V30 BEGIN COLLECTION
M  V30 MDLV30/STERAC1 ATOMS=(1 3)
M  V30 END COLLECTION
M  V30 END CTAB
M  END
>  <Molecule ChEMBL ID>
CHEMBL121

>  <Smiles>
CN(CCOc1ccc(CC2SC(=O)NC2=O)cc1)c1ccccn1

>  <IC50_nM>
67

>  <Assay Description>
Displacement of [3H]2-methyl-2-(4-{3-[propyl-(5-pyridin-2-yl-thiophene-2-sulfonyl)-amino]-propyl}-phenoxy)-propionic acid from human PPARgamma by SPA

$$$$
CHEMBL3678141
Actelion Java MolfileCreator 2.0

  0  0  0  0  0  0              0 V3000
M  V30 BEGIN CTAB
M  V30 COUNTS 39 43 0 0 0
M  V30 BEGIN ATOM
M  V30 1 Cl 4.3301 0.9999 0.0 0
M  V30 2 C 4.3301 0.0 0.0 0
M  V30 3 C 3.4641 -0.5 0.0 0
M  V30 4 C 5.1961 -0.5 0.0 0
M  V30 5 O 2.598 0.0 0.0 0
M  V30 6 C 3.4641 -1.5 0.0 0
M  V30 7 C 5.1961 -1.5 0.0 0
M  V30 8 C 1.732 -0.5 0.0 0 CFG=2
M  V30 9 C 4.3301 -2.0 0.0 0
M  V30 10 C 6.0621 -2.0 0.0 0
M  V30 11 C 0.866 0.0 0.0 0
M  V30 12 C 1.732 -1.5 0.0 0
M  V30 13 N 6.9282 -1.5 0.0 0
M  V30 14 O 0.866 1.0 0.0 0
M  V30 15 O 0.0 -0.5 0.0 0
M  V30 16 C 7.8417 -1.9067 0.0 0
M  V30 17 C 7.0327 -0.5054 0.0 0
M  V30 18 C 8.5108 -1.1635 0.0 0
M  V30 19 C 8.1507 -2.8577 0.0 0
M  V30 20 C 8.0108 -0.2975 0.0 0
M  V30 21 C 6.2895 0.1636 0.0 0
M  V30 22 C 9.489 -1.3715 0.0 0
M  V30 23 C 9.1289 -3.0657 0.0 0
M  V30 24 C 8.4176 0.6159 0.0 0
M  V30 25 C 9.798 -2.3225 0.0 0
M  V30 26 C 10.7761 -2.5304 0.0 0
M  V30 27 O 11.0852 -3.4815 0.0 0
M  V30 28 N 11.4453 -1.7873 0.0 0
M  V30 29 C 12.4234 -1.9952 0.0 0 CFG=2
M  V30 30 C 12.7324 -2.9462 0.0 0
M  V30 31 C 13.0926 -1.252 0.0 0
M  V30 32 C 12.0633 -3.6894 0.0 0
M  V30 33 C 13.7106 -3.1542 0.0 0
M  V30 34 C 12.3723 -4.6404 0.0 0
M  V30 35 C 14.0196 -4.1052 0.0 0
M  V30 36 C 13.3505 -4.8484 0.0 0
M  V30 37 C 11.7032 -5.3836 0.0 0
M  V30 38 C 10.7521 -5.6926 0.0 0
M  V30 39 C 11.4953 -6.3617 0.0 0
M  V30 END ATOM
M  V30 BEGIN BOND
M  V30 1 1 1 2
M  V30 2 2 2 3
M  V30 3 1 2 4
M  V30 4 1 3 5
M  V30 5 1 3 6
M  V30 6 2 4 7
M  V30 7 1 5 8
M  V30 8 2 6 9
M  V30 9 1 7 10
M  V30 10 1 8 11
M  V30 11 1 8 12 CFG=1
M  V30 12 1 10 13
M  V30 13 2 11 14
M  V30 14 1 11 15
M  V30 15 1 13 16
M  V30 16 1 13 17
M  V30 17 2 16 18
M  V30 18 1 16 19
M  V30 19 2 17 20
M  V30 20 1 17 21
M  V30 21 1 18 22
M  V30 22 2 19 23
M  V30 23 1 20 24
M  V30 24 2 22 25
M  V30 25 1 25 26
M  V30 26 2 26 27
M  V30 27 1 26 28
M  V30 28 1 28 29
M  V30 29 1 29 30
M  V30 30 1 29 31 CFG=1
M  V30 31 2 30 32
M  V30 32 1 30 33
M  V30 33 1 32 34
M  V30 34 2 33 35
M  V30 35 2 34 36
M  V30 36 1 34 37
M  V30 37 1 37 38
M  V30 38 1 37 39
M  V30 39 1 7 9
M  V30 40 1 18 20
M  V30 41 1 23 25
M  V30 42 1 35 36
M  V30 43 1 38 39
M  V30 END BOND
M  V30 BEGIN COLLECTION
M  V30 MDLV30/STEABS ATOMS=(2 8 29)
M  V30 END COLLECTION
M  V30 END CTAB
M  END
>  <Molecule ChEMBL ID>
CHEMBL3678141

>  <Smiles>
Cc1c(C)n(Cc2ccc(O[C@@H](C)C(=O)O)c(Cl)c2)c2ccc(C(=O)N[C@@H](C)c3cccc(C4CC4)c3)cc12

>  <IC50_nM>
67

>  <Assay Description>
Lanthascreen Competitive Binding Assay: The assay was performed according to manufacturer protocol. A mixture of 5 nM GST-PPARG-LBD, 5 nM Tb-GST-antibody, 5 nM Fluormone Pan- PPAR Green, and serial dilutions of the experimental compound, beginning at 10 ׬� downwards, was added to wells of black 384-well low- volume plates (Greiner) to a total volume of 18 xL. All dilutions were made in TR-FRET assay buffer C. DMSO at 2% final concentration was used as a no-ligand control. Experiment was performed in triplicate, and incubated for 2 hours in the dark prior to assay read in Perkin Elmer ViewLux ultra HTS microplate reader. FRET signal was measured by excitation at 340 nm and emission at 520 nm for fluorescein and 490 nm for terbium.

$$$$
CHEMBL1946570
Actelion Java MolfileCreator 2.0

  0  0  0  0  0  0              0 V3000
M  V30 BEGIN CTAB
M  V30 COUNTS 38 42 0 0 0
M  V30 BEGIN ATOM
M  V30 1 Cl 4.3301 0.9999 0.0 0
M  V30 2 C 4.3301 0.0 0.0 0
M  V30 3 C 3.4641 -0.5 0.0 0
M  V30 4 C 5.1961 -0.5 0.0 0
M  V30 5 O 2.598 0.0 0.0 0
M  V30 6 C 3.4641 -1.5 0.0 0
M  V30 7 C 5.1961 -1.5 0.0 0
M  V30 8 C 1.732 -0.5 0.0 0 CFG=1
M  V30 9 C 4.3301 -2.0 0.0 0
M  V30 10 C 0.866 0.0 0.0 0
M  V30 11 C 1.732 -1.5 0.0 0
M  V30 12 C 4.3301 -3.0 0.0 0
M  V30 13 O 0.866 1.0 0.0 0
M  V30 14 O 0.0 -0.5 0.0 0
M  V30 15 N 5.1961 -3.5 0.0 0
M  V30 16 C 5.3006 -4.4945 0.0 0
M  V30 17 C 6.1096 -3.0932 0.0 0
M  V30 18 O 4.5575 -5.1636 0.0 0
M  V30 19 N 6.2788 -4.7024 0.0 0
M  V30 20 C 6.7788 -3.8364 0.0 0
M  V30 21 C 6.4187 -2.1422 0.0 0
M  V30 22 C 6.6855 -5.6159 0.0 0
M  V30 23 C 7.7569 -3.6284 0.0 0
M  V30 24 C 7.3968 -1.9342 0.0 0
M  V30 25 N 6.1855 -6.482 0.0 0
M  V30 26 C 7.6637 -5.8238 0.0 0
M  V30 27 C 8.0659 -2.6774 0.0 0
M  V30 28 C 7.7058 -0.9832 0.0 0
M  V30 29 O 6.8546 -7.2251 0.0 0
M  V30 30 C 7.7682 -6.8184 0.0 0
M  V30 31 C 8.4727 -5.2361 0.0 0
M  V30 32 F 6.7548 -0.6742 0.0 0
M  V30 33 F 8.0148 -0.0321 0.0 0
M  V30 34 F 8.6569 -1.2922 0.0 0
M  V30 35 C 8.6817 -7.2251 0.0 0
M  V30 36 C 9.3862 -5.6428 0.0 0
M  V30 37 C 9.4908 -6.6373 0.0 0
M  V30 38 Cl 10.4043 -7.0441 0.0 0
M  V30 END ATOM
M  V30 BEGIN BOND
M  V30 1 1 1 2
M  V30 2 2 2 3
M  V30 3 1 2 4
M  V30 4 1 3 5
M  V30 5 1 3 6
M  V30 6 2 4 7
M  V30 7 1 5 8
M  V30 8 2 6 9
M  V30 9 1 8 10
M  V30 10 1 8 11 CFG=3
M  V30 11 1 9 12
M  V30 12 2 10 13
M  V30 13 1 10 14
M  V30 14 1 12 15
M  V30 15 1 15 16
M  V30 16 1 15 17
M  V30 17 2 16 18
M  V30 18 1 16 19
M  V30 19 2 17 20
M  V30 20 1 17 21
M  V30 21 1 19 22
M  V30 22 1 20 23
M  V30 23 2 21 24
M  V30 24 2 22 25
M  V30 25 1 22 26
M  V30 26 2 23 27
M  V30 27 1 24 28
M  V30 28 1 25 29
M  V30 29 2 26 30
M  V30 30 1 26 31
M  V30 31 1 28 32
M  V30 32 1 28 33
M  V30 33 1 28 34
M  V30 34 1 30 35
M  V30 35 2 31 36
M  V30 36 2 35 37
M  V30 37 1 37 38
M  V30 38 1 7 9
M  V30 39 1 19 20
M  V30 40 1 24 27
M  V30 41 1 29 30
M  V30 42 1 36 37
M  V30 END BOND
M  V30 BEGIN COLLECTION
M  V30 MDLV30/STEABS ATOMS=(1 8)
M  V30 END COLLECTION
M  V30 END CTAB
M  END
>  <Molecule ChEMBL ID>
CHEMBL1946570

>  <Smiles>
C[C@@H](Oc1cc(Cn2c(=O)n(-c3noc4cc(Cl)ccc34)c3ccc(C(F)(F)F)cc32)ccc1Cl)C(=O)O

>  <IC50_nM>
68

>  <Assay Description>
Binding affinity to human PPARgamma by scintillation proximity assay

$$$$
CHEMBL515106
Actelion Java MolfileCreator 2.0

  0  0  0  0  0  0              0 V3000
M  V30 BEGIN CTAB
M  V30 COUNTS 36 40 0 0 0
M  V30 BEGIN ATOM
M  V30 1 O 8.0301 0.3006 0.0 0
M  V30 2 C 7.8222 1.2787 0.0 0
M  V30 3 O 8.5653 1.9478 0.0 0
M  V30 4 C 6.8711 1.5877 0.0 0
M  V30 5 N 6.5621 2.5388 0.0 0
M  V30 6 C 6.0621 1.0 0.0 0
M  V30 7 N 5.5621 2.5388 0.0 0
M  V30 8 N 5.2531 1.5877 0.0 0
M  V30 9 C 6.0621 0.0 0.0 0
M  V30 10 C 4.9743 3.3478 0.0 0
M  V30 11 C 5.1961 -0.5 0.0 0
M  V30 12 C 5.3811 4.2614 0.0 0
M  V30 13 C 3.9798 3.2433 0.0 0
M  V30 14 C 4.3301 0.0 0.0 0
M  V30 15 C 5.1961 -1.4999 0.0 0
M  V30 16 C 4.7933 5.0704 0.0 0
M  V30 17 C 3.392 4.0523 0.0 0
M  V30 18 C 3.4641 -0.5 0.0 0
M  V30 19 C 4.3301 -1.9999 0.0 0
M  V30 20 C 3.7988 4.9658 0.0 0
M  V30 21 O 2.598 0.0 0.0 0
M  V30 22 C 3.4641 -1.4999 0.0 0
M  V30 23 C 1.732 -0.5 0.0 0
M  V30 24 C 0.866 0.0 0.0 0
M  V30 25 C 0.0 -0.5 0.0 0
M  V30 26 N -0.9135 -0.0932 0.0 0
M  V30 27 C -0.1045 -1.4945 0.0 0
M  V30 28 C -1.5826 -0.8364 0.0 0
M  V30 29 O -1.0826 -1.7024 0.0 0
M  V30 30 C 0.6386 -2.1636 0.0 0
M  V30 31 C -2.5771 -0.7318 0.0 0
M  V30 32 C -2.9839 0.1816 0.0 0
M  V30 33 C -3.1649 -1.5408 0.0 0
M  V30 34 C -3.9784 0.2861 0.0 0
M  V30 35 C -4.1595 -1.4363 0.0 0
M  V30 36 C -4.5662 -0.5228 0.0 0
M  V30 END ATOM
M  V30 BEGIN BOND
M  V30 1 2 1 2
M  V30 2 1 2 3
M  V30 3 1 2 4
M  V30 4 2 4 5
M  V30 5 1 4 6
M  V30 6 1 5 7
M  V30 7 2 6 8
M  V30 8 1 6 9
M  V30 9 1 7 10
M  V30 10 1 9 11
M  V30 11 2 10 12
M  V30 12 1 10 13
M  V30 13 2 11 14
M  V30 14 1 11 15
M  V30 15 1 12 16
M  V30 16 2 13 17
M  V30 17 1 14 18
M  V30 18 2 15 19
M  V30 19 2 16 20
M  V30 20 1 18 21
M  V30 21 2 18 22
M  V30 22 1 21 23
M  V30 23 1 23 24
M  V30 24 1 24 25
M  V30 25 1 25 26
M  V30 26 2 25 27
M  V30 27 2 26 28
M  V30 28 1 27 29
M  V30 29 1 27 30
M  V30 30 1 28 31
M  V30 31 2 31 32
M  V30 32 1 31 33
M  V30 33 1 32 34
M  V30 34 2 33 35
M  V30 35 2 34 36
M  V30 36 1 7 8
M  V30 37 1 17 20
M  V30 38 1 19 22
M  V30 39 1 28 29
M  V30 40 1 35 36
M  V30 END BOND
M  V30 END CTAB
M  END
>  <Molecule ChEMBL ID>
CHEMBL515106

>  <Smiles>
Cc1oc(-c2ccccc2)nc1CCOc1cccc(Cc2nn(-c3ccccc3)nc2C(=O)O)c1

>  <IC50_nM>
69

>  <Assay Description>
Binding affinity to PPARgamma by fluorescence polarization assay

$$$$
CHEMBL3678112
Actelion Java MolfileCreator 2.0

  0  0  0  0  0  0              0 V3000
M  V30 BEGIN CTAB
M  V30 COUNTS 37 40 0 0 0
M  V30 BEGIN ATOM
M  V30 1 O 11.0852 1.4815 0.0 0
M  V30 2 C 10.7761 0.5304 0.0 0
M  V30 3 N 11.4453 -0.2126 0.0 0
M  V30 4 C 9.798 0.3225 0.0 0
M  V30 5 C 11.1363 -1.1637 0.0 0 CFG=2
M  V30 6 C 9.489 -0.6284 0.0 0
M  V30 7 C 9.1289 1.0657 0.0 0
M  V30 8 C 11.8054 -1.9068 0.0 0
M  V30 9 C 10.1581 -1.3716 0.0 0
M  V30 10 C 8.5108 -0.8364 0.0 0
M  V30 11 C 8.1507 0.8577 0.0 0
M  V30 12 C 12.7835 -1.6989 0.0 0
M  V30 13 C 11.4964 -2.8579 0.0 0
M  V30 14 C 7.8417 -0.0932 0.0 0
M  V30 15 C 8.0108 -1.7024 0.0 0
M  V30 16 C 13.4527 -2.4421 0.0 0
M  V30 17 C 12.1655 -3.601 0.0 0
M  V30 18 N 6.9282 -0.5 0.0 0
M  V30 19 C 7.0327 -1.4945 0.0 0
M  V30 20 C 8.4176 -2.6159 0.0 0
M  V30 21 C 13.1436 -3.3931 0.0 0
M  V30 22 C 14.4308 -2.2341 0.0 0
M  V30 23 C 6.0621 0.0 0.0 0
M  V30 24 C 6.2895 -2.1636 0.0 0
M  V30 25 C 14.7398 -1.2831 0.0 0
M  V30 26 C 15.0999 -2.9773 0.0 0
M  V30 27 C 5.1961 -0.5 0.0 0
M  V30 28 C 4.3301 0.0 0.0 0
M  V30 29 C 5.1961 -1.4999 0.0 0
M  V30 30 C 3.4641 -0.5 0.0 0
M  V30 31 C 4.3301 -1.9999 0.0 0
M  V30 32 O 2.598 0.0 0.0 0
M  V30 33 C 3.4641 -1.4999 0.0 0
M  V30 34 C 1.732 -0.5 0.0 0
M  V30 35 C 0.866 0.0 0.0 0
M  V30 36 O 0.866 1.0 0.0 0
M  V30 37 O 0.0 -0.5 0.0 0
M  V30 END ATOM
M  V30 BEGIN BOND
M  V30 1 2 1 2
M  V30 2 1 2 3
M  V30 3 1 2 4
M  V30 4 1 3 5
M  V30 5 2 4 6
M  V30 6 1 4 7
M  V30 7 1 5 8
M  V30 8 1 5 9 CFG=3
M  V30 9 1 6 10
M  V30 10 2 7 11
M  V30 11 2 8 12
M  V30 12 1 8 13
M  V30 13 2 10 14
M  V30 14 1 10 15
M  V30 15 1 12 16
M  V30 16 2 13 17
M  V30 17 1 14 18
M  V30 18 2 15 19
M  V30 19 1 15 20
M  V30 20 2 16 21
M  V30 21 1 16 22
M  V30 22 1 18 23
M  V30 23 1 19 24
M  V30 24 1 22 25
M  V30 25 1 22 26
M  V30 26 1 23 27
M  V30 27 2 27 28
M  V30 28 1 27 29
M  V30 29 1 28 30
M  V30 30 2 29 31
M  V30 31 1 30 32
M  V30 32 2 30 33
M  V30 33 1 32 34
M  V30 34 1 34 35
M  V30 35 2 35 36
M  V30 36 1 35 37
M  V30 37 1 11 14
M  V30 38 1 17 21
M  V30 39 1 18 19
M  V30 40 1 31 33
M  V30 END BOND
M  V30 BEGIN COLLECTION
M  V30 MDLV30/STEABS ATOMS=(1 5)
M  V30 END COLLECTION
M  V30 END CTAB
M  END
>  <Molecule ChEMBL ID>
CHEMBL3678112

>  <Smiles>
Cc1c(C)n(Cc2cccc(OCC(=O)O)c2)c2ccc(C(=O)N[C@@H](C)c3cccc(C(C)C)c3)cc12

>  <IC50_nM>
69

>  <Assay Description>
Lanthascreen Competitive Binding Assay: The assay was performed according to manufacturer protocol. A mixture of 5 nM GST-PPARG-LBD, 5 nM Tb-GST-antibody, 5 nM Fluormone Pan- PPAR Green, and serial dilutions of the experimental compound, beginning at 10 ׬� downwards, was added to wells of black 384-well low- volume plates (Greiner) to a total volume of 18 xL. All dilutions were made in TR-FRET assay buffer C. DMSO at 2% final concentration was used as a no-ligand control. Experiment was performed in triplicate, and incubated for 2 hours in the dark prior to assay read in Perkin Elmer ViewLux ultra HTS microplate reader. FRET signal was measured by excitation at 340 nm and emission at 520 nm for fluorescein and 490 nm for terbium.

$$$$
CHEMBL474149
Actelion Java MolfileCreator 2.0

  0  0  0  0  0  0              0 V3000
M  V30 BEGIN CTAB
M  V30 COUNTS 36 40 0 0 0
M  V30 BEGIN ATOM
M  V30 1 O 8.0301 0.3006 0.0 0
M  V30 2 C 7.8222 1.2787 0.0 0
M  V30 3 O 8.5653 1.9478 0.0 0
M  V30 4 C 6.8711 1.5877 0.0 0
M  V30 5 N 6.5621 2.5388 0.0 0
M  V30 6 C 6.0621 1.0 0.0 0
M  V30 7 N 5.5621 2.5388 0.0 0
M  V30 8 C 5.2531 1.5877 0.0 0
M  V30 9 C 6.0621 0.0 0.0 0
M  V30 10 C 4.9743 3.3478 0.0 0
M  V30 11 C 5.1961 -0.5 0.0 0
M  V30 12 C 5.3811 4.2614 0.0 0
M  V30 13 C 3.9798 3.2433 0.0 0
M  V30 14 C 4.3301 0.0 0.0 0
M  V30 15 C 5.1961 -1.4999 0.0 0
M  V30 16 C 4.7933 5.0704 0.0 0
M  V30 17 C 3.392 4.0523 0.0 0
M  V30 18 C 3.4641 -0.5 0.0 0
M  V30 19 C 4.3301 -1.9999 0.0 0
M  V30 20 C 3.7988 4.9658 0.0 0
M  V30 21 O 2.598 0.0 0.0 0
M  V30 22 C 3.4641 -1.4999 0.0 0
M  V30 23 C 1.732 -0.5 0.0 0
M  V30 24 C 0.866 0.0 0.0 0
M  V30 25 C 0.0 -0.5 0.0 0
M  V30 26 N -0.9135 -0.0932 0.0 0
M  V30 27 C -0.1045 -1.4945 0.0 0
M  V30 28 C -1.5826 -0.8364 0.0 0
M  V30 29 O -1.0826 -1.7024 0.0 0
M  V30 30 C 0.6386 -2.1636 0.0 0
M  V30 31 C -2.5771 -0.7318 0.0 0
M  V30 32 C -2.9839 0.1816 0.0 0
M  V30 33 C -3.1649 -1.5408 0.0 0
M  V30 34 C -3.9784 0.2861 0.0 0
M  V30 35 C -4.1595 -1.4363 0.0 0
M  V30 36 C -4.5662 -0.5228 0.0 0
M  V30 END ATOM
M  V30 BEGIN BOND
M  V30 1 2 1 2
M  V30 2 1 2 3
M  V30 3 1 2 4
M  V30 4 2 4 5
M  V30 5 1 4 6
M  V30 6 1 5 7
M  V30 7 2 6 8
M  V30 8 1 6 9
M  V30 9 1 7 10
M  V30 10 1 9 11
M  V30 11 2 10 12
M  V30 12 1 10 13
M  V30 13 2 11 14
M  V30 14 1 11 15
M  V30 15 1 12 16
M  V30 16 2 13 17
M  V30 17 1 14 18
M  V30 18 2 15 19
M  V30 19 2 16 20
M  V30 20 1 18 21
M  V30 21 2 18 22
M  V30 22 1 21 23
M  V30 23 1 23 24
M  V30 24 1 24 25
M  V30 25 1 25 26
M  V30 26 2 25 27
M  V30 27 2 26 28
M  V30 28 1 27 29
M  V30 29 1 27 30
M  V30 30 1 28 31
M  V30 31 2 31 32
M  V30 32 1 31 33
M  V30 33 1 32 34
M  V30 34 2 33 35
M  V30 35 2 34 36
M  V30 36 1 7 8
M  V30 37 1 17 20
M  V30 38 1 19 22
M  V30 39 1 28 29
M  V30 40 1 35 36
M  V30 END BOND
M  V30 END CTAB
M  END
>  <Molecule ChEMBL ID>
CHEMBL474149

>  <Smiles>
Cc1oc(-c2ccccc2)nc1CCOc1cccc(Cc2cn(-c3ccccc3)nc2C(=O)O)c1

>  <IC50_nM>
70

>  <Assay Description>
Binding affinity to PPARgamma by fluorescence polarization assay

$$$$
CHEMBL121
Actelion Java MolfileCreator 2.0

  0  0  0  0  0  0              0 V3000
M  V30 BEGIN CTAB
M  V30 COUNTS 25 27 0 0 0
M  V30 BEGIN ATOM
M  V30 1 S 7.8987 0.0054 0.0 0
M  V30 2 C 8.8769 -0.2024 0.0 0
M  V30 3 C 7.7942 0.9999 0.0 0 CFG=2
M  V30 4 O 9.2836 -1.1159 0.0 0
M  V30 5 N 9.3769 0.6635 0.0 0
M  V30 6 C 8.7077 1.4067 0.0 0
M  V30 7 C 6.9282 1.4999 0.0 0
M  V30 8 O 8.9156 2.3848 0.0 0
M  V30 9 C 6.0621 0.9999 0.0 0
M  V30 10 C 5.1961 1.4999 0.0 0
M  V30 11 C 6.0621 0.0 0.0 0
M  V30 12 C 4.3301 0.9999 0.0 0
M  V30 13 C 5.1961 -0.5 0.0 0
M  V30 14 C 4.3301 0.0 0.0 0
M  V30 15 O 3.4641 -0.5 0.0 0
M  V30 16 C 2.598 0.0 0.0 0
M  V30 17 C 1.732 -0.5 0.0 0
M  V30 18 N 0.866 0.0 0.0 0
M  V30 19 C 0.866 1.0 0.0 0
M  V30 20 C 0.0 -0.5 0.0 0
M  V30 21 N 1.732 1.4999 0.0 0
M  V30 22 C 0.0 1.4999 0.0 0
M  V30 23 C 1.732 2.5 0.0 0
M  V30 24 C 0.0 2.5 0.0 0
M  V30 25 C 0.866 3.0 0.0 0
M  V30 END ATOM
M  V30 BEGIN BOND
M  V30 1 1 1 2
M  V30 2 1 1 3
M  V30 3 2 2 4
M  V30 4 1 2 5
M  V30 5 1 3 6
M  V30 6 1 3 7 CFG=1
M  V30 7 2 6 8
M  V30 8 1 7 9
M  V30 9 2 9 10
M  V30 10 1 9 11
M  V30 11 1 10 12
M  V30 12 2 11 13
M  V30 13 2 12 14
M  V30 14 1 14 15
M  V30 15 1 15 16
M  V30 16 1 16 17
M  V30 17 1 17 18
M  V30 18 1 18 19
M  V30 19 1 18 20
M  V30 20 2 19 21
M  V30 21 1 19 22
M  V30 22 1 21 23
M  V30 23 2 22 24
M  V30 24 2 23 25
M  V30 25 1 5 6
M  V30 26 1 13 14
M  V30 27 1 24 25
M  V30 END BOND
M  V30 BEGIN COLLECTION
M  V30 MDLV30/STERAC1 ATOMS=(1 3)
M  V30 END COLLECTION
M  V30 END CTAB
M  END
>  <Molecule ChEMBL ID>
CHEMBL121

>  <Smiles>
CN(CCOc1ccc(CC2SC(=O)NC2=O)cc1)c1ccccn1

>  <IC50_nM>
70

>  <Assay Description>
Mean inhibitory concentration against human peroxisome proliferator-activated receptor gamma

$$$$
CHEMBL3678157
Actelion Java MolfileCreator 2.0

  0  0  0  0  0  0              0 V3000
M  V30 BEGIN CTAB
M  V30 COUNTS 40 44 0 0 0
M  V30 BEGIN ATOM
M  V30 1 O 16.6278 2.2222 0.0 0
M  V30 2 C 16.1642 0.7957 0.0 0
M  V30 3 N 17.1679 -0.319 0.0 0
M  V30 4 C 14.697 0.4838 0.0 0
M  V30 5 C 16.7044 -1.7455 0.0 0 CFG=2
M  V30 6 C 14.2335 -0.9427 0.0 0
M  V30 7 C 13.6933 1.5985 0.0 0
M  V30 8 C 17.7081 -2.8603 0.0 0
M  V30 9 C 15.2372 -2.0574 0.0 0
M  V30 10 C 12.7663 -1.2546 0.0 0
M  V30 11 C 12.2261 1.2866 0.0 0
M  V30 12 C 19.1753 -2.5484 0.0 0
M  V30 13 C 17.2446 -4.2868 0.0 0
M  V30 14 C 11.7626 -0.1398 0.0 0
M  V30 15 C 12.0163 -2.5536 0.0 0
M  V30 16 C 20.179 -3.6631 0.0 0
M  V30 17 C 18.2483 -5.4016 0.0 0
M  V30 18 N 10.3923 -0.75 0.0 0
M  V30 19 C 10.549 -2.2417 0.0 0
M  V30 20 C 12.6264 -3.9239 0.0 0
M  V30 21 C 19.7155 -5.0897 0.0 0
M  V30 22 C 21.6462 -3.3512 0.0 0
M  V30 23 C 9.0932 0.0 0.0 0
M  V30 24 C 9.4343 -3.2454 0.0 0
M  V30 25 C 22.761 -2.3475 0.0 0
M  V30 26 C 23.0728 -3.8148 0.0 0
M  V30 27 C 7.7942 -0.75 0.0 0
M  V30 28 C 6.4951 0.0 0.0 0
M  V30 29 C 7.7942 -2.2499 0.0 0
M  V30 30 C 5.1961 -0.75 0.0 0
M  V30 31 C 6.4951 -3.0 0.0 0
M  V30 32 O 3.8971 0.0 0.0 0
M  V30 33 C 5.1961 -2.2499 0.0 0
M  V30 34 C 2.598 -0.75 0.0 0 CFG=2
M  V30 35 O 3.8971 -3.0 0.0 0
M  V30 36 C 1.299 0.0 0.0 0
M  V30 37 C 2.598 -2.25 0.0 0
M  V30 38 C 3.8971 -4.5 0.0 0
M  V30 39 O 1.299 1.5 0.0 0
M  V30 40 O 0.0 -0.75 0.0 0
M  V30 END ATOM
M  V30 BEGIN BOND
M  V30 1 2 1 2
M  V30 2 1 2 3
M  V30 3 1 2 4
M  V30 4 1 3 5
M  V30 5 2 4 6
M  V30 6 1 4 7
M  V30 7 1 5 8
M  V30 8 1 5 9 CFG=3
M  V30 9 1 6 10
M  V30 10 2 7 11
M  V30 11 2 8 12
M  V30 12 1 8 13
M  V30 13 2 10 14
M  V30 14 1 10 15
M  V30 15 1 12 16
M  V30 16 2 13 17
M  V30 17 1 14 18
M  V30 18 2 15 19
M  V30 19 1 15 20
M  V30 20 2 16 21
M  V30 21 1 16 22
M  V30 22 1 18 23
M  V30 23 1 19 24
M  V30 24 1 22 25
M  V30 25 1 22 26
M  V30 26 1 23 27
M  V30 27 2 27 28
M  V30 28 1 27 29
M  V30 29 1 28 30
M  V30 30 2 29 31
M  V30 31 1 30 32
M  V30 32 2 30 33
M  V30 33 1 32 34
M  V30 34 1 33 35
M  V30 35 1 34 36
M  V30 36 1 34 37 CFG=1
M  V30 37 1 35 38
M  V30 38 2 36 39
M  V30 39 1 36 40
M  V30 40 1 11 14
M  V30 41 1 17 21
M  V30 42 1 18 19
M  V30 43 1 25 26
M  V30 44 1 31 33
M  V30 END BOND
M  V30 BEGIN COLLECTION
M  V30 MDLV30/STEABS ATOMS=(2 5 34)
M  V30 END COLLECTION
M  V30 END CTAB
M  END
>  <Molecule ChEMBL ID>
CHEMBL3678157

>  <Smiles>
COc1ccc(Cn2c(C)c(C)c3cc(C(=O)N[C@@H](C)c4cccc(C5CC5)c4)ccc32)cc1O[C@@H](C)C(=O)O

>  <IC50_nM>
70

>  <Assay Description>
Lanthascreen Competitive Binding Assay: The assay was performed according to manufacturer protocol. A mixture of 5 nM GST-PPARG-LBD, 5 nM Tb-GST-antibody, 5 nM Fluormone Pan- PPAR Green, and serial dilutions of the experimental compound, beginning at 10 ׬� downwards, was added to wells of black 384-well low- volume plates (Greiner) to a total volume of 18 xL. All dilutions were made in TR-FRET assay buffer C. DMSO at 2% final concentration was used as a no-ligand control. Experiment was performed in triplicate, and incubated for 2 hours in the dark prior to assay read in Perkin Elmer ViewLux ultra HTS microplate reader. FRET signal was measured by excitation at 340 nm and emission at 520 nm for fluorescein and 490 nm for terbium.

$$$$
CHEMBL81676
Actelion Java MolfileCreator 2.0

  0  0  0  0  0  0              0 V3000
M  V30 BEGIN CTAB
M  V30 COUNTS 40 44 0 0 0
M  V30 BEGIN ATOM
M  V30 1 O 5.1961 -4.5 0.0 0
M  V30 2 C 5.1961 -3.4999 0.0 0
M  V30 3 O 4.3301 -2.9999 0.0 0
M  V30 4 C 6.0621 -3.0 0.0 0 CFG=1
M  V30 5 O 6.9282 -3.5 0.0 0
M  V30 6 C 6.0621 -1.9999 0.0 0
M  V30 7 C 6.0621 -4.0 0.0 0
M  V30 8 C 7.7942 -3.0 0.0 0
M  V30 9 C 5.1961 -1.4999 0.0 0
M  V30 10 C 7.7942 -2.0 0.0 0
M  V30 11 C 8.6602 -3.5 0.0 0
M  V30 12 C 5.1961 -0.5 0.0 0
M  V30 13 C 4.3301 -1.9999 0.0 0
M  V30 14 C 8.6602 -1.5 0.0 0
M  V30 15 C 9.5262 -3.0 0.0 0
M  V30 16 C 4.3301 0.0 0.0 0
M  V30 17 C 3.4641 -1.5 0.0 0
M  V30 18 C 9.5262 -2.0 0.0 0
M  V30 19 C 3.4641 -0.5 0.0 0
M  V30 20 O 2.598 0.0 0.0 0
M  V30 21 C 1.732 -0.5 0.0 0
M  V30 22 C 0.866 0.0 0.0 0
M  V30 23 C 0.0 -0.5 0.0 0
M  V30 24 N -0.9135 -0.0932 0.0 0
M  V30 25 C -0.1045 -1.4945 0.0 0
M  V30 26 C -1.5826 -0.8364 0.0 0
M  V30 27 O -1.0826 -1.7024 0.0 0
M  V30 28 C 0.6386 -2.1636 0.0 0
M  V30 29 C -2.5771 -0.7318 0.0 0
M  V30 30 C -2.9839 0.1816 0.0 0
M  V30 31 C -3.1649 -1.5408 0.0 0
M  V30 32 C -3.9784 0.2861 0.0 0
M  V30 33 C -4.1595 -1.4363 0.0 0
M  V30 34 C -4.3851 1.1997 0.0 0
M  V30 35 C -4.5662 -0.5228 0.0 0
M  V30 36 C -3.7974 2.0087 0.0 0
M  V30 37 C -5.3797 1.3042 0.0 0
M  V30 38 C -4.2041 2.9223 0.0 0
M  V30 39 C -5.7864 2.2178 0.0 0
M  V30 40 C -5.1986 3.0268 0.0 0
M  V30 END ATOM
M  V30 BEGIN BOND
M  V30 1 2 1 2
M  V30 2 1 2 3
M  V30 3 1 2 4
M  V30 4 1 4 5
M  V30 5 1 4 6
M  V30 6 1 4 7 CFG=1
M  V30 7 1 5 8
M  V30 8 1 6 9
M  V30 9 2 8 10
M  V30 10 1 8 11
M  V30 11 2 9 12
M  V30 12 1 9 13
M  V30 13 1 10 14
M  V30 14 2 11 15
M  V30 15 1 12 16
M  V30 16 2 13 17
M  V30 17 2 14 18
M  V30 18 2 16 19
M  V30 19 1 19 20
M  V30 20 1 20 21
M  V30 21 1 21 22
M  V30 22 1 22 23
M  V30 23 1 23 24
M  V30 24 2 23 25
M  V30 25 2 24 26
M  V30 26 1 25 27
M  V30 27 1 25 28
M  V30 28 1 26 29
M  V30 29 2 29 30
M  V30 30 1 29 31
M  V30 31 1 30 32
M  V30 32 2 31 33
M  V30 33 1 32 34
M  V30 34 2 32 35
M  V30 35 2 34 36
M  V30 36 1 34 37
M  V30 37 1 36 38
M  V30 38 2 37 39
M  V30 39 2 38 40
M  V30 40 1 15 18
M  V30 41 1 17 19
M  V30 42 1 26 27
M  V30 43 1 33 35
M  V30 44 1 39 40
M  V30 END BOND
M  V30 BEGIN COLLECTION
M  V30 MDLV30/STERAC1 ATOMS=(1 4)
M  V30 END COLLECTION
M  V30 END CTAB
M  END
>  <Molecule ChEMBL ID>
CHEMBL81676

>  <Smiles>
Cc1oc(-c2cccc(-c3ccccc3)c2)nc1CCOc1ccc(CC(C)(Oc2ccccc2)C(=O)O)cc1

>  <IC50_nM>
71

>  <Assay Description>
Displacement of PPARgamma agonist from human PPAR gamma receptor

$$$$
CHEMBL210163
Actelion Java MolfileCreator 2.0

  0  0  0  0  0  0              0 V3000
M  V30 BEGIN CTAB
M  V30 COUNTS 32 35 0 0 0
M  V30 BEGIN ATOM
M  V30 1 Cl 11.9457 -0.5036 0.0 0
M  V30 2 C 11.8411 0.4908 0.0 0
M  V30 3 C 12.6502 1.0786 0.0 0
M  V30 4 C 10.9276 0.8975 0.0 0
M  V30 5 C 12.5456 2.0731 0.0 0
M  V30 6 C 10.8231 1.8921 0.0 0
M  V30 7 Cl 13.3546 2.6609 0.0 0
M  V30 8 C 11.6321 2.4799 0.0 0
M  V30 9 C 9.9095 2.2988 0.0 0
M  V30 10 O 9.7016 3.277 0.0 0
M  V30 11 N 9.0435 1.7988 0.0 0
M  V30 12 C 8.7071 3.3815 0.0 0
M  V30 13 C 8.3003 2.4679 0.0 0
M  V30 14 C 8.2071 4.2475 0.0 0
M  V30 15 C 7.3222 2.26 0.0 0
M  V30 16 N 7.0132 1.309 0.0 0
M  V30 17 C 6.0621 0.9999 0.0 0
M  V30 18 C 7.601 0.5 0.0 0
M  V30 19 C 6.0621 0.0 0.0 0
M  V30 20 C 5.1961 1.4999 0.0 0
M  V30 21 C 7.0132 -0.309 0.0 0
M  V30 22 C 5.1961 -0.5 0.0 0
M  V30 23 C 4.3301 0.9999 0.0 0
M  V30 24 C 4.3301 0.0 0.0 0
M  V30 25 C 3.4641 -0.5 0.0 0
M  V30 26 C 2.598 0.0 0.0 0 CFG=2
M  V30 27 O 1.732 -0.5 0.0 0
M  V30 28 C 2.598 1.0 0.0 0
M  V30 29 C 0.866 0.0 0.0 0
M  V30 30 O 3.4641 1.4999 0.0 0
M  V30 31 O 1.732 1.5 0.0 0
M  V30 32 C 0.0 -0.5 0.0 0
M  V30 END ATOM
M  V30 BEGIN BOND
M  V30 1 1 1 2
M  V30 2 2 2 3
M  V30 3 1 2 4
M  V30 4 1 3 5
M  V30 5 2 4 6
M  V30 6 1 5 7
M  V30 7 2 5 8
M  V30 8 1 6 9
M  V30 9 1 9 10
M  V30 10 2 9 11
M  V30 11 1 10 12
M  V30 12 1 11 13
M  V30 13 1 12 14
M  V30 14 1 13 15
M  V30 15 1 15 16
M  V30 16 1 16 17
M  V30 17 1 16 18
M  V30 18 2 17 19
M  V30 19 1 17 20
M  V30 20 2 18 21
M  V30 21 1 19 22
M  V30 22 2 20 23
M  V30 23 2 22 24
M  V30 24 1 24 25
M  V30 25 1 25 26
M  V30 26 1 26 27 CFG=3
M  V30 27 1 26 28
M  V30 28 1 27 29
M  V30 29 2 28 30
M  V30 30 1 28 31
M  V30 31 1 29 32
M  V30 32 1 6 8
M  V30 33 2 12 13
M  V30 34 1 19 21
M  V30 35 1 23 24
M  V30 END BOND
M  V30 BEGIN COLLECTION
M  V30 MDLV30/STERAC1 ATOMS=(1 26)
M  V30 END COLLECTION
M  V30 END CTAB
M  END
>  <Molecule ChEMBL ID>
CHEMBL210163

>  <Smiles>
CCOC(Cc1ccc2c(ccn2Cc2nc(-c3cc(Cl)cc(Cl)c3)oc2C)c1)C(=O)O

>  <IC50_nM>
71

>  <Assay Description>
Binding affinity to PPARgamma by radio ligand binding assay

$$$$
CHEMBL219773
Actelion Java MolfileCreator 2.0

  0  0  0  0  0  0              0 V3000
M  V30 BEGIN CTAB
M  V30 COUNTS 38 41 0 0 0
M  V30 BEGIN ATOM
M  V30 1 S 3.8971 0.0 0.0 0
M  V30 2 O 4.6471 1.299 0.0 0
M  V30 3 O 3.1471 1.299 0.0 0
M  V30 4 N 2.598 -0.75 0.0 0
M  V30 5 C 5.1961 -0.75 0.0 0
M  V30 6 C 1.299 0.0 0.0 0
M  V30 7 C 6.4951 0.0 0.0 0
M  V30 8 C 0.0 -0.75 0.0 0
M  V30 9 C 7.7942 -0.75 0.0 0
M  V30 10 C 6.4951 1.5 0.0 0
M  V30 11 C -1.299 0.0 0.0 0
M  V30 12 C 0.0 -2.25 0.0 0
M  V30 13 C 9.0932 0.0 0.0 0
M  V30 14 C 7.7942 2.25 0.0 0
M  V30 15 C -2.598 -0.75 0.0 0
M  V30 16 C -1.299 1.5 0.0 0
M  V30 17 C -1.299 -3.0 0.0 0
M  V30 18 C 9.0932 1.5 0.0 0
M  V30 19 C -2.598 -2.25 0.0 0
M  V30 20 C -2.598 2.25 0.0 0
M  V30 21 O -1.299 -4.5 0.0 0
M  V30 22 C -2.598 3.75 0.0 0
M  V30 23 C 0.0 -5.25 0.0 0
M  V30 24 O -1.299 4.5 0.0 0
M  V30 25 O -3.8971 4.5 0.0 0
M  V30 26 C 0.0 -6.75 0.0 0
M  V30 27 C 1.299 -7.5 0.0 0
M  V30 28 N 1.4558 -8.9917 0.0 0
M  V30 29 C 2.6693 -6.8899 0.0 0
M  V30 30 C 2.923 -9.3036 0.0 0
M  V30 31 O 3.673 -8.0046 0.0 0
M  V30 32 C 2.9812 -5.4226 0.0 0
M  V30 33 C 3.5331 -10.6739 0.0 0
M  V30 34 C 2.6514 -11.8875 0.0 0
M  V30 35 C 5.0249 -10.8307 0.0 0
M  V30 36 C 3.2615 -13.2578 0.0 0
M  V30 37 C 5.635 -12.201 0.0 0
M  V30 38 C 4.7533 -13.4146 0.0 0
M  V30 END ATOM
M  V30 BEGIN BOND
M  V30 1 2 1 2
M  V30 2 2 1 3
M  V30 3 1 1 4
M  V30 4 1 1 5
M  V30 5 1 4 6
M  V30 6 1 5 7
M  V30 7 1 6 8
M  V30 8 2 7 9
M  V30 9 1 7 10
M  V30 10 2 8 11
M  V30 11 1 8 12
M  V30 12 1 9 13
M  V30 13 2 10 14
M  V30 14 1 11 15
M  V30 15 1 11 16
M  V30 16 2 12 17
M  V30 17 2 13 18
M  V30 18 2 15 19
M  V30 19 1 16 20
M  V30 20 1 17 21
M  V30 21 1 20 22
M  V30 22 1 21 23
M  V30 23 2 22 24
M  V30 24 1 22 25
M  V30 25 1 23 26
M  V30 26 1 26 27
M  V30 27 1 27 28
M  V30 28 2 27 29
M  V30 29 2 28 30
M  V30 30 1 29 31
M  V30 31 1 29 32
M  V30 32 1 30 33
M  V30 33 2 33 34
M  V30 34 1 33 35
M  V30 35 1 34 36
M  V30 36 2 35 37
M  V30 37 2 36 38
M  V30 38 1 14 18
M  V30 39 1 17 19
M  V30 40 1 30 31
M  V30 41 1 37 38
M  V30 END BOND
M  V30 END CTAB
M  END
>  <Molecule ChEMBL ID>
CHEMBL219773

>  <Smiles>
Cc1oc(-c2ccccc2)nc1CCOc1ccc(CCC(=O)O)c(CNS(=O)(=O)Cc2ccccc2)c1

>  <IC50_nM>
72

>  <Assay Description>
Displacement of [3H]2-methyl-2-(4-{3-propyl-(5-pyridin-2yl-thiophene-2-sulfonyl)-amino]-pro-pyl}-phenoxy)-propionic acid from human PPARgamma

$$$$
CHEMBL1783046
Actelion Java MolfileCreator 2.0

  0  0  0  0  0  0              0 V3000
M  V30 BEGIN CTAB
M  V30 COUNTS 35 38 0 0 0
M  V30 BEGIN ATOM
M  V30 1 Cl 7.7942 -6.0 0.0 0
M  V30 2 C 7.7942 -5.0 0.0 0
M  V30 3 C 8.6602 -4.5 0.0 0
M  V30 4 C 6.9282 -4.5 0.0 0
M  V30 5 C 8.6602 -3.5 0.0 0
M  V30 6 C 6.9282 -3.5 0.0 0
M  V30 7 C 7.7942 -3.0 0.0 0
M  V30 8 O 7.7942 -2.0 0.0 0
M  V30 9 C 6.9282 -1.5 0.0 0
M  V30 10 C 6.9282 -0.5 0.0 0
M  V30 11 C 6.0621 -2.0 0.0 0
M  V30 12 C 6.0621 0.0 0.0 0
M  V30 13 C 5.1961 -1.5 0.0 0
M  V30 14 C 5.1961 -0.5 0.0 0
M  V30 15 C 6.0621 0.9999 0.0 0
M  V30 16 O 4.3301 0.0 0.0 0
M  V30 17 C 6.9282 1.4999 0.0 0
M  V30 18 C 3.4641 -0.5 0.0 0
M  V30 19 C 6.9282 2.4999 0.0 0
M  V30 20 C 2.598 0.0 0.0 0
M  V30 21 C 1.732 -0.5 0.0 0
M  V30 22 O 0.866 0.0 0.0 0
M  V30 23 C 0.0 -0.5 0.0 0
M  V30 24 C -0.866 0.0 0.0 0
M  V30 25 C 0.0 -1.4999 0.0 0
M  V30 26 C -1.732 -0.4999 0.0 0
M  V30 27 C -0.866 -1.9999 0.0 0
M  V30 28 C -1.732 -1.4999 0.0 0
M  V30 29 C -2.598 0.0 0.0 0 CFG=1
M  V30 30 S -2.7026 0.9945 0.0 0
M  V30 31 C -3.5116 -0.4067 0.0 0
M  V30 32 C -3.6807 1.2024 0.0 0
M  V30 33 O -3.7195 -1.3848 0.0 0
M  V30 34 N -4.1807 0.3364 0.0 0
M  V30 35 O -4.0874 2.1159 0.0 0
M  V30 END ATOM
M  V30 BEGIN BOND
M  V30 1 1 1 2
M  V30 2 2 2 3
M  V30 3 1 2 4
M  V30 4 1 3 5
M  V30 5 2 4 6
M  V30 6 2 5 7
M  V30 7 1 7 8
M  V30 8 1 8 9
M  V30 9 2 9 10
M  V30 10 1 9 11
M  V30 11 1 10 12
M  V30 12 2 11 13
M  V30 13 2 12 14
M  V30 14 1 12 15
M  V30 15 1 14 16
M  V30 16 1 15 17
M  V30 17 1 16 18
M  V30 18 1 17 19
M  V30 19 1 18 20
M  V30 20 1 20 21
M  V30 21 1 21 22
M  V30 22 1 22 23
M  V30 23 2 23 24
M  V30 24 1 23 25
M  V30 25 1 24 26
M  V30 26 2 25 27
M  V30 27 2 26 28
M  V30 28 1 29 26 CFG=3
M  V30 29 1 29 30
M  V30 30 1 29 31
M  V30 31 1 30 32
M  V30 32 2 31 33
M  V30 33 1 31 34
M  V30 34 2 32 35
M  V30 35 1 6 7
M  V30 36 1 13 14
M  V30 37 1 27 28
M  V30 38 1 32 34
M  V30 END BOND
M  V30 BEGIN COLLECTION
M  V30 MDLV30/STEABS ATOMS=(1 29)
M  V30 END COLLECTION
M  V30 END CTAB
M  END
>  <Molecule ChEMBL ID>
CHEMBL1783046

>  <Smiles>
CCCc1cc(Oc2ccc(Cl)cc2)ccc1OCCCOc1cccc([C@H]2SC(=O)NC2=O)c1

>  <IC50_nM>
73

>  <Assay Description>
Displacement of radio-labeled full agonist from PPARgamma receptor

$$$$
CHEMBL420441
Actelion Java MolfileCreator 2.0

  0  0  0  0  0  0              0 V3000
M  V30 BEGIN CTAB
M  V30 COUNTS 35 38 0 0 0
M  V30 BEGIN ATOM
M  V30 1 Cl 7.7942 -6.0 0.0 0
M  V30 2 C 7.7942 -5.0 0.0 0
M  V30 3 C 8.6602 -4.5 0.0 0
M  V30 4 C 6.9282 -4.5 0.0 0
M  V30 5 C 8.6602 -3.5 0.0 0
M  V30 6 C 6.9282 -3.5 0.0 0
M  V30 7 C 7.7942 -3.0 0.0 0
M  V30 8 O 7.7942 -2.0 0.0 0
M  V30 9 C 6.9282 -1.5 0.0 0
M  V30 10 C 6.9282 -0.5 0.0 0
M  V30 11 C 6.0621 -2.0 0.0 0
M  V30 12 C 6.0621 0.0 0.0 0
M  V30 13 C 5.1961 -1.5 0.0 0
M  V30 14 C 5.1961 -0.5 0.0 0
M  V30 15 C 6.0621 0.9999 0.0 0
M  V30 16 O 4.3301 0.0 0.0 0
M  V30 17 C 6.9282 1.4999 0.0 0
M  V30 18 C 3.4641 -0.5 0.0 0
M  V30 19 C 6.9282 2.4999 0.0 0
M  V30 20 C 2.598 0.0 0.0 0
M  V30 21 C 1.732 -0.5 0.0 0
M  V30 22 O 0.866 0.0 0.0 0
M  V30 23 C 0.0 -0.5 0.0 0
M  V30 24 C -0.866 0.0 0.0 0
M  V30 25 C 0.0 -1.4999 0.0 0
M  V30 26 C -1.732 -0.4999 0.0 0
M  V30 27 C -0.866 -1.9999 0.0 0
M  V30 28 C -1.732 -1.4999 0.0 0
M  V30 29 C -2.598 0.0 0.0 0 CFG=1
M  V30 30 S -2.7026 0.9945 0.0 0
M  V30 31 C -3.5116 -0.4067 0.0 0
M  V30 32 C -3.6807 1.2024 0.0 0
M  V30 33 O -3.7195 -1.3848 0.0 0
M  V30 34 N -4.1807 0.3364 0.0 0
M  V30 35 O -4.0874 2.1159 0.0 0
M  V30 END ATOM
M  V30 BEGIN BOND
M  V30 1 1 1 2
M  V30 2 2 2 3
M  V30 3 1 2 4
M  V30 4 1 3 5
M  V30 5 2 4 6
M  V30 6 2 5 7
M  V30 7 1 7 8
M  V30 8 1 8 9
M  V30 9 2 9 10
M  V30 10 1 9 11
M  V30 11 1 10 12
M  V30 12 2 11 13
M  V30 13 2 12 14
M  V30 14 1 12 15
M  V30 15 1 14 16
M  V30 16 1 15 17
M  V30 17 1 16 18
M  V30 18 1 17 19
M  V30 19 1 18 20
M  V30 20 1 20 21
M  V30 21 1 21 22
M  V30 22 1 22 23
M  V30 23 2 23 24
M  V30 24 1 23 25
M  V30 25 1 24 26
M  V30 26 2 25 27
M  V30 27 2 26 28
M  V30 28 1 29 26 CFG=3
M  V30 29 1 29 30
M  V30 30 1 29 31
M  V30 31 1 30 32
M  V30 32 2 31 33
M  V30 33 1 31 34
M  V30 34 2 32 35
M  V30 35 1 6 7
M  V30 36 1 13 14
M  V30 37 1 27 28
M  V30 38 1 32 34
M  V30 END BOND
M  V30 BEGIN COLLECTION
M  V30 MDLV30/STERAC1 ATOMS=(1 29)
M  V30 END COLLECTION
M  V30 END CTAB
M  END
>  <Molecule ChEMBL ID>
CHEMBL420441

>  <Smiles>
CCCc1cc(Oc2ccc(Cl)cc2)ccc1OCCCOc1cccc(C2SC(=O)NC2=O)c1

>  <IC50_nM>
73

>  <Assay Description>
In vitro binding affinity against human peroxisome proliferator activated receptor gamma

$$$$
CHEMBL3699369
Actelion Java MolfileCreator 2.0

  0  0  0  0  0  0              0 V3000
M  V30 BEGIN CTAB
M  V30 COUNTS 44 48 0 0 0
M  V30 BEGIN ATOM
M  V30 1 F 6.5621 -1.1339 0.0 0
M  V30 2 C 6.0621 -1.9999 0.0 0
M  V30 3 F 6.9282 -2.5 0.0 0
M  V30 4 F 5.5621 -2.866 0.0 0
M  V30 5 C 5.1961 -1.4999 0.0 0
M  V30 6 C 5.1961 -0.5 0.0 0
M  V30 7 C 4.3301 -1.9999 0.0 0
M  V30 8 C 4.3301 0.0 0.0 0
M  V30 9 C 3.4641 -1.5 0.0 0
M  V30 10 O 4.3301 1.0 0.0 0
M  V30 11 C 3.4641 -0.5 0.0 0
M  V30 12 C 3.4641 1.5 0.0 0
M  V30 13 C 2.598 0.0 0.0 0 CFG=1
M  V30 14 N 1.732 -0.5 0.0 0
M  V30 15 C 2.598 1.0 0.0 0
M  V30 16 C 0.866 0.0 0.0 0
M  V30 17 O 0.866 1.0 0.0 0
M  V30 18 C 0.0 -0.5 0.0 0
M  V30 19 C 0.0 -1.4999 0.0 0
M  V30 20 C -0.866 0.0 0.0 0
M  V30 21 C -0.866 -1.9999 0.0 0
M  V30 22 C -1.732 -0.4999 0.0 0
M  V30 23 C -1.732 -1.4999 0.0 0
M  V30 24 C -1.0739 -2.9781 0.0 0
M  V30 25 N -2.4751 -2.1691 0.0 0
M  V30 26 C -2.0684 -3.0826 0.0 0
M  V30 27 C -0.4048 -3.7212 0.0 0
M  V30 28 C -3.4533 -1.9612 0.0 0
M  V30 29 C -2.5684 -3.9487 0.0 0
M  V30 30 C -4.1224 -2.7043 0.0 0
M  V30 31 C -5.1006 -2.4964 0.0 0
M  V30 32 C -3.8134 -3.6554 0.0 0
M  V30 33 C -5.7697 -3.2395 0.0 0
M  V30 34 C -4.4825 -4.3985 0.0 0
M  V30 35 C -5.4607 -4.1906 0.0 0
M  V30 36 C -6.1298 -4.9337 0.0 0
M  V30 37 C -7.108 -4.7258 0.0 0
M  V30 38 C -5.8208 -5.8848 0.0 0
M  V30 39 C -7.417 -3.7748 0.0 0
M  V30 40 C -7.7771 -5.469 0.0 0
M  V30 41 C -6.4899 -6.6279 0.0 0
M  V30 42 O -6.7478 -3.0316 0.0 0
M  V30 43 O -8.3951 -3.5669 0.0 0
M  V30 44 C -7.4681 -6.42 0.0 0
M  V30 END ATOM
M  V30 BEGIN BOND
M  V30 1 1 1 2
M  V30 2 1 2 3
M  V30 3 1 2 4
M  V30 4 1 2 5
M  V30 5 2 5 6
M  V30 6 1 5 7
M  V30 7 1 6 8
M  V30 8 2 7 9
M  V30 9 1 8 10
M  V30 10 2 8 11
M  V30 11 1 10 12
M  V30 12 1 11 13
M  V30 13 1 13 14
M  V30 14 1 13 15 CFG=1
M  V30 15 1 14 16
M  V30 16 2 16 17
M  V30 17 1 16 18
M  V30 18 2 18 19
M  V30 19 1 18 20
M  V30 20 1 19 21
M  V30 21 2 20 22
M  V30 22 2 21 23
M  V30 23 1 21 24
M  V30 24 1 23 25
M  V30 25 2 24 26
M  V30 26 1 24 27
M  V30 27 1 25 28
M  V30 28 1 26 29
M  V30 29 1 28 30
M  V30 30 2 30 31
M  V30 31 1 30 32
M  V30 32 1 31 33
M  V30 33 2 32 34
M  V30 34 2 33 35
M  V30 35 1 35 36
M  V30 36 2 36 37
M  V30 37 1 36 38
M  V30 38 1 37 39
M  V30 39 1 37 40
M  V30 40 2 38 41
M  V30 41 2 39 42
M  V30 42 1 39 43
M  V30 43 2 40 44
M  V30 44 1 9 11
M  V30 45 1 22 23
M  V30 46 1 25 26
M  V30 47 1 34 35
M  V30 48 1 41 44
M  V30 END BOND
M  V30 BEGIN COLLECTION
M  V30 MDLV30/STEABS ATOMS=(1 13)
M  V30 END COLLECTION
M  V30 END CTAB
M  END
>  <Molecule ChEMBL ID>
CHEMBL3699369

>  <Smiles>
COc1cc(C(F)(F)F)ccc1[C@H](C)NC(=O)c1ccc2c(c1)c(C)c(C)n2Cc1ccc(-c2ccccc2C(=O)O)cc1

>  <IC50_nM>
73

>  <Assay Description>
Lanthascreen Competitive Binding Assay: The assay was performed according to manufacturer protocol. A mixture of nM GST-PPARG-LBD, 5 nM Tb-GST-antibody, 5 nM Fluormone Pan-PPAR Green, and serial dilutions of the experimental compound, beginning at 10 ׬M downwards, was added to wells of black 384-well low-volume plates (Greiner) to a total volume of 18 ׬L. All dilutions were made in TR-FRET assay buffer C. DMSO at 2% final concentration was used as a no-ligand control. Experiment was performed in triplicate, and incubated for 2 hours in the dark prior to assay read in Perkin Elmer ViewLux ultra HTS microplate reader. FRET signal was measured by excitation at 340 nm and emission at 520 nm for fluorescein and 490 nm for terbium. Fold change over DMSO was calculated using GraphPad Prism Software (La Jolla, Calif.) by calculating 520 nm/490 nm ratio. Graphs were plotted as fold change of FRET signal for compound treatment over DMSO-only control.

$$$$
CHEMBL3678121
Actelion Java MolfileCreator 2.0

  0  0  0  0  0  0              0 V3000
M  V30 BEGIN CTAB
M  V30 COUNTS 36 39 0 0 0
M  V30 BEGIN ATOM
M  V30 1 O 5.1961 -0.7499 0.0 0
M  V30 2 C 3.8971 0.0 0.0 0
M  V30 3 N 2.598 -0.7499 0.0 0
M  V30 4 C 3.8971 1.5 0.0 0
M  V30 5 C 1.299 0.0 0.0 0 CFG=2
M  V30 6 C 2.598 2.25 0.0 0
M  V30 7 C 5.1961 2.25 0.0 0
M  V30 8 C 0.0 -0.7499 0.0 0
M  V30 9 C 1.299 1.5 0.0 0
M  V30 10 C 2.598 3.75 0.0 0
M  V30 11 C 5.1961 3.75 0.0 0
M  V30 12 C 0.0 -2.2499 0.0 0
M  V30 13 C -1.299 0.0 0.0 0
M  V30 14 C 3.8971 4.5 0.0 0
M  V30 15 C 1.4833 4.7536 0.0 0
M  V30 16 C -1.299 -2.9999 0.0 0
M  V30 17 C -2.598 -0.7499 0.0 0
M  V30 18 N 3.5852 5.9672 0.0 0
M  V30 19 C 2.0934 6.124 0.0 0
M  V30 20 C 0.0161 4.4418 0.0 0
M  V30 21 C -2.598 -2.2499 0.0 0
M  V30 22 C -1.299 -4.4999 0.0 0
M  V30 23 C 4.5889 7.0819 0.0 0
M  V30 24 C 1.3434 7.423 0.0 0
M  V30 25 C 0.0 -5.2499 0.0 0
M  V30 26 C -2.598 -5.2499 0.0 0
M  V30 27 C 4.1254 8.5085 0.0 0
M  V30 28 C 5.1291 9.6232 0.0 0
M  V30 29 C 2.6581 8.8203 0.0 0
M  V30 30 C 4.6655 11.0498 0.0 0
M  V30 31 C 2.1946 10.2469 0.0 0
M  V30 32 O 5.6692 12.1645 0.0 0
M  V30 33 C 3.1983 11.3616 0.0 0
M  V30 34 C 5.2057 13.5911 0.0 0
M  V30 35 C 3.7385 13.9029 0.0 0
M  V30 36 N 2.2713 14.2148 0.0 0
M  V30 END ATOM
M  V30 BEGIN BOND
M  V30 1 2 1 2
M  V30 2 1 2 3
M  V30 3 1 2 4
M  V30 4 1 3 5
M  V30 5 2 4 6
M  V30 6 1 4 7
M  V30 7 1 5 8
M  V30 8 1 5 9 CFG=3
M  V30 9 1 6 10
M  V30 10 2 7 11
M  V30 11 2 8 12
M  V30 12 1 8 13
M  V30 13 2 10 14
M  V30 14 1 10 15
M  V30 15 1 12 16
M  V30 16 2 13 17
M  V30 17 1 14 18
M  V30 18 2 15 19
M  V30 19 1 15 20
M  V30 20 2 16 21
M  V30 21 1 16 22
M  V30 22 1 18 23
M  V30 23 1 19 24
M  V30 24 1 22 25
M  V30 25 1 22 26
M  V30 26 1 23 27
M  V30 27 2 27 28
M  V30 28 1 27 29
M  V30 29 1 28 30
M  V30 30 2 29 31
M  V30 31 1 30 32
M  V30 32 2 30 33
M  V30 33 1 32 34
M  V30 34 1 34 35
M  V30 35 3 35 36
M  V30 36 1 11 14
M  V30 37 1 17 21
M  V30 38 1 18 19
M  V30 39 1 31 33
M  V30 END BOND
M  V30 BEGIN COLLECTION
M  V30 MDLV30/STEABS ATOMS=(1 5)
M  V30 END COLLECTION
M  V30 END CTAB
M  END
>  <Molecule ChEMBL ID>
CHEMBL3678121

>  <Smiles>
Cc1c(C)n(Cc2cccc(OCC#N)c2)c2ccc(C(=O)N[C@@H](C)c3cccc(C(C)C)c3)cc12

>  <IC50_nM>
74

>  <Assay Description>
Lanthascreen Competitive Binding Assay: The assay was performed according to manufacturer protocol. A mixture of 5 nM GST-PPARG-LBD, 5 nM Tb-GST-antibody, 5 nM Fluormone Pan- PPAR Green, and serial dilutions of the experimental compound, beginning at 10 ׬� downwards, was added to wells of black 384-well low- volume plates (Greiner) to a total volume of 18 xL. All dilutions were made in TR-FRET assay buffer C. DMSO at 2% final concentration was used as a no-ligand control. Experiment was performed in triplicate, and incubated for 2 hours in the dark prior to assay read in Perkin Elmer ViewLux ultra HTS microplate reader. FRET signal was measured by excitation at 340 nm and emission at 520 nm for fluorescein and 490 nm for terbium.

$$$$
CHEMBL187557
Actelion Java MolfileCreator 2.0

  0  0  0  0  0  0              0 V3000
M  V30 BEGIN CTAB
M  V30 COUNTS 30 31 0 0 0
M  V30 BEGIN ATOM
M  V30 1 O 3.9425 -3.035 0.0 0
M  V30 2 C 2.6283 -2.2762 0.0 0
M  V30 3 O 1.6104 -2.798 0.0 0
M  V30 4 C 2.6283 -0.7587 0.0 0 CFG=1
M  V30 5 O 1.3141 0.0 0.0 0
M  V30 6 C 3.9425 0.0 0.0 0
M  V30 7 C 0.0 -0.7587 0.0 0
M  V30 8 C 3.9425 1.5175 0.0 0
M  V30 9 C 5.2567 -0.7587 0.0 0
M  V30 10 C -1.3141 0.0 0.0 0
M  V30 11 C 0.0 -2.2762 0.0 0
M  V30 12 C 5.2567 2.2762 0.0 0
M  V30 13 C 6.5709 0.0 0.0 0
M  V30 14 C -2.6283 -0.7587 0.0 0
M  V30 15 C -1.3141 1.5175 0.0 0
M  V30 16 C -1.3141 -3.035 0.0 0
M  V30 17 C 1.166 -3.1535 0.0 0
M  V30 18 C 6.5709 1.5175 0.0 0
M  V30 19 C -2.6283 -2.2762 0.0 0
M  V30 20 C 0.0 2.2762 0.0 0
M  V30 21 C 1.3141 -4.5525 0.0 0
M  V30 22 C 7.8851 2.2762 0.0 0
M  V30 23 C -3.9425 -3.035 0.0 0
M  V30 24 C 0.0 3.7937 0.0 0
M  V30 25 C 0.0 -5.3112 0.0 0
M  V30 26 C 7.8851 3.7937 0.0 0
M  V30 27 C 9.1993 1.5175 0.0 0
M  V30 28 O -3.9425 -4.5525 0.0 0
M  V30 29 C -5.2567 -2.2762 0.0 0
M  V30 30 C -6.5709 -3.035 0.0 0
M  V30 END ATOM
M  V30 BEGIN BOND
M  V30 1 2 1 2
M  V30 2 1 2 3
M  V30 3 1 2 4
M  V30 4 1 4 5 CFG=1
M  V30 5 1 4 6
M  V30 6 1 5 7
M  V30 7 2 6 8
M  V30 8 1 6 9
M  V30 9 2 7 10
M  V30 10 1 7 11
M  V30 11 1 8 12
M  V30 12 2 9 13
M  V30 13 1 10 14
M  V30 14 1 10 15
M  V30 15 2 11 16
M  V30 16 1 11 17
M  V30 17 2 12 18
M  V30 18 2 14 19
M  V30 19 1 15 20
M  V30 20 1 17 21
M  V30 21 1 18 22
M  V30 22 1 19 23
M  V30 23 1 20 24
M  V30 24 1 21 25
M  V30 25 1 22 26
M  V30 26 1 22 27
M  V30 27 2 23 28
M  V30 28 1 23 29
M  V30 29 1 29 30
M  V30 30 1 13 18
M  V30 31 1 16 19
M  V30 END BOND
M  V30 BEGIN COLLECTION
M  V30 MDLV30/STEABS ATOMS=(1 4)
M  V30 END COLLECTION
M  V30 END CTAB
M  END
>  <Molecule ChEMBL ID>
CHEMBL187557

>  <Smiles>
CCCc1cc(C(=O)CC)cc(CCC)c1O[C@H](C(=O)O)c1ccc(C(C)C)cc1

>  <IC50_nM>
75

>  <Assay Description>
In vitro binding affinity for human PPAR gamma

$$$$
CHEMBL197848
Actelion Java MolfileCreator 2.0

  0  0  0  0  0  0              0 V3000
M  V30 BEGIN CTAB
M  V30 COUNTS 33 36 0 0 0
M  V30 BEGIN ATOM
M  V30 1 F 3.8301 0.866 0.0 0
M  V30 2 C 4.3301 0.0 0.0 0
M  V30 3 F 5.1961 0.4999 0.0 0
M  V30 4 F 4.8301 -0.866 0.0 0
M  V30 5 C 3.4641 -0.5 0.0 0
M  V30 6 C 2.598 0.0 0.0 0
M  V30 7 C 3.4641 -1.4999 0.0 0
M  V30 8 C 1.732 -0.5 0.0 0
M  V30 9 C 2.598 -2.0 0.0 0
M  V30 10 O 0.866 0.0 0.0 0
M  V30 11 C 1.732 -1.5 0.0 0
M  V30 12 C 0.0 -0.5 0.0 0
M  V30 13 C -0.9135 -0.0932 0.0 0
M  V30 14 C -0.1045 -1.4945 0.0 0
M  V30 15 N -1.5826 -0.8364 0.0 0
M  V30 16 C -1.1214 0.8848 0.0 0
M  V30 17 C -1.0826 -1.7024 0.0 0
M  V30 18 C 0.5646 -2.2376 0.0 0
M  V30 19 C -2.5771 -0.7318 0.0 0
M  V30 20 O -0.3783 1.554 0.0 0
M  V30 21 O -2.0725 1.1939 0.0 0
M  V30 22 N -1.3916 -2.6534 0.0 0
M  V30 23 C 0.2555 -3.1887 0.0 0
M  V30 24 C -2.9839 0.1816 0.0 0
M  V30 25 C -3.1649 -1.5408 0.0 0
M  V30 26 C -0.7225 -3.3966 0.0 0
M  V30 27 C -3.9784 0.2861 0.0 0
M  V30 28 C -4.1595 -1.4363 0.0 0
M  V30 29 C -4.5662 -0.5228 0.0 0
M  V30 30 C -5.5607 -0.4182 0.0 0
M  V30 31 C -5.6652 -1.4128 0.0 0
M  V30 32 C -6.5552 -0.3137 0.0 0
M  V30 33 C -5.4562 0.5762 0.0 0
M  V30 END ATOM
M  V30 BEGIN BOND
M  V30 1 1 1 2
M  V30 2 1 2 3
M  V30 3 1 2 4
M  V30 4 1 2 5
M  V30 5 2 5 6
M  V30 6 1 5 7
M  V30 7 1 6 8
M  V30 8 2 7 9
M  V30 9 1 8 10
M  V30 10 2 8 11
M  V30 11 1 10 12
M  V30 12 2 12 13
M  V30 13 1 12 14
M  V30 14 1 13 15
M  V30 15 1 13 16
M  V30 16 2 14 17
M  V30 17 1 14 18
M  V30 18 1 15 19
M  V30 19 2 16 20
M  V30 20 1 16 21
M  V30 21 1 17 22
M  V30 22 2 18 23
M  V30 23 2 19 24
M  V30 24 1 19 25
M  V30 25 2 22 26
M  V30 26 1 24 27
M  V30 27 2 25 28
M  V30 28 2 27 29
M  V30 29 1 29 30
M  V30 30 1 30 31
M  V30 31 1 30 32
M  V30 32 1 30 33
M  V30 33 1 9 11
M  V30 34 1 15 17
M  V30 35 1 23 26
M  V30 36 1 28 29
M  V30 END BOND
M  V30 END CTAB
M  END
>  <Molecule ChEMBL ID>
CHEMBL197848

>  <Smiles>
CC(C)(C)c1ccc(-n2c(C(=O)O)c(Oc3cccc(C(F)(F)F)c3)c3cccnc32)cc1

>  <IC50_nM>
75

>  <Assay Description>
Inhibitory concentration against human peroxisome proliferator activated receptor gamma in SPA assay

$$$$
CHEMBL121
Actelion Java MolfileCreator 2.0

  0  0  0  0  0  0              0 V3000
M  V30 BEGIN CTAB
M  V30 COUNTS 25 27 0 0 0
M  V30 BEGIN ATOM
M  V30 1 S 7.8987 0.0054 0.0 0
M  V30 2 C 8.8769 -0.2024 0.0 0
M  V30 3 C 7.7942 0.9999 0.0 0 CFG=2
M  V30 4 O 9.2836 -1.1159 0.0 0
M  V30 5 N 9.3769 0.6635 0.0 0
M  V30 6 C 8.7077 1.4067 0.0 0
M  V30 7 C 6.9282 1.4999 0.0 0
M  V30 8 O 8.9156 2.3848 0.0 0
M  V30 9 C 6.0621 0.9999 0.0 0
M  V30 10 C 5.1961 1.4999 0.0 0
M  V30 11 C 6.0621 0.0 0.0 0
M  V30 12 C 4.3301 0.9999 0.0 0
M  V30 13 C 5.1961 -0.5 0.0 0
M  V30 14 C 4.3301 0.0 0.0 0
M  V30 15 O 3.4641 -0.5 0.0 0
M  V30 16 C 2.598 0.0 0.0 0
M  V30 17 C 1.732 -0.5 0.0 0
M  V30 18 N 0.866 0.0 0.0 0
M  V30 19 C 0.866 1.0 0.0 0
M  V30 20 C 0.0 -0.5 0.0 0
M  V30 21 N 1.732 1.4999 0.0 0
M  V30 22 C 0.0 1.4999 0.0 0
M  V30 23 C 1.732 2.5 0.0 0
M  V30 24 C 0.0 2.5 0.0 0
M  V30 25 C 0.866 3.0 0.0 0
M  V30 END ATOM
M  V30 BEGIN BOND
M  V30 1 1 1 2
M  V30 2 1 1 3
M  V30 3 2 2 4
M  V30 4 1 2 5
M  V30 5 1 3 6
M  V30 6 1 3 7 CFG=1
M  V30 7 2 6 8
M  V30 8 1 7 9
M  V30 9 2 9 10
M  V30 10 1 9 11
M  V30 11 1 10 12
M  V30 12 2 11 13
M  V30 13 2 12 14
M  V30 14 1 14 15
M  V30 15 1 15 16
M  V30 16 1 16 17
M  V30 17 1 17 18
M  V30 18 1 18 19
M  V30 19 1 18 20
M  V30 20 2 19 21
M  V30 21 1 19 22
M  V30 22 1 21 23
M  V30 23 2 22 24
M  V30 24 2 23 25
M  V30 25 1 5 6
M  V30 26 1 13 14
M  V30 27 1 24 25
M  V30 END BOND
M  V30 BEGIN COLLECTION
M  V30 MDLV30/STERAC1 ATOMS=(1 3)
M  V30 END COLLECTION
M  V30 END CTAB
M  END
>  <Molecule ChEMBL ID>
CHEMBL121

>  <Smiles>
CN(CCOc1ccc(CC2SC(=O)NC2=O)cc1)c1ccccn1

>  <IC50_nM>
75.52

>  <Assay Description>
Agonist activity at PPARgamma ligand binding domain (unknown origin) using fluormone Pan-PPAR green tracer by TR-FRET assay based competitive ligand binding method

$$$$
CHEMBL3699437
Actelion Java MolfileCreator 2.0

  0  0  0  0  0  0              0 V3000
M  V30 BEGIN CTAB
M  V30 COUNTS 42 46 0 0 0
M  V30 BEGIN ATOM
M  V30 1 O 10.212 -3.0316 0.0 0
M  V30 2 C 10.8811 -3.7748 0.0 0
M  V30 3 N 11.8592 -3.5669 0.0 0
M  V30 4 C 10.5721 -4.7258 0.0 0
M  V30 5 C 12.5284 -4.31 0.0 0
M  V30 6 C 9.5939 -4.9337 0.0 0
M  V30 7 C 11.2412 -5.469 0.0 0
M  V30 8 C 8.9248 -4.1906 0.0 0
M  V30 9 C 9.2849 -5.8848 0.0 0
M  V30 10 C 10.9322 -6.42 0.0 0
M  V30 11 C 9.2338 -3.2395 0.0 0
M  V30 12 C 7.9466 -4.3985 0.0 0
M  V30 13 C 9.954 -6.6279 0.0 0
M  V30 14 C 8.5647 -2.4964 0.0 0
M  V30 15 C 7.2775 -3.6554 0.0 0
M  V30 16 C 7.5865 -2.7043 0.0 0
M  V30 17 C 6.9174 -1.9612 0.0 0
M  V30 18 N 5.9392 -2.1691 0.0 0
M  V30 19 C 5.1961 -1.4999 0.0 0
M  V30 20 C 5.5325 -3.0826 0.0 0
M  V30 21 C 4.3301 -1.9999 0.0 0
M  V30 22 C 5.1961 -0.4999 0.0 0
M  V30 23 C 4.538 -2.9781 0.0 0
M  V30 24 C 6.0325 -3.9487 0.0 0
M  V30 25 C 3.4641 -1.5 0.0 0
M  V30 26 C 4.3301 0.0 0.0 0
M  V30 27 C 3.8689 -3.7212 0.0 0
M  V30 28 C 3.4641 -0.5 0.0 0
M  V30 29 C 2.598 0.0 0.0 0
M  V30 30 O 2.598 1.0 0.0 0
M  V30 31 N 1.732 -0.5 0.0 0
M  V30 32 C 0.866 0.0 0.0 0 CFG=2
M  V30 33 C 0.866 1.0 0.0 0
M  V30 34 C 0.0 -0.5 0.0 0
M  V30 35 C 1.732 1.5 0.0 0
M  V30 36 C 0.0 1.4999 0.0 0
M  V30 37 C 1.732 2.5 0.0 0
M  V30 38 C 0.0 2.5 0.0 0
M  V30 39 C 0.866 2.9999 0.0 0
M  V30 40 C 2.598 3.0 0.0 0
M  V30 41 C 3.4641 2.5 0.0 0
M  V30 42 C 2.598 4.0 0.0 0
M  V30 END ATOM
M  V30 BEGIN BOND
M  V30 1 2 1 2
M  V30 2 1 2 3
M  V30 3 1 2 4
M  V30 4 1 3 5
M  V30 5 2 4 6
M  V30 6 1 4 7
M  V30 7 1 6 8
M  V30 8 1 6 9
M  V30 9 2 7 10
M  V30 10 2 8 11
M  V30 11 1 8 12
M  V30 12 2 9 13
M  V30 13 1 11 14
M  V30 14 2 12 15
M  V30 15 2 14 16
M  V30 16 1 16 17
M  V30 17 1 17 18
M  V30 18 1 18 19
M  V30 19 1 18 20
M  V30 20 2 19 21
M  V30 21 1 19 22
M  V30 22 2 20 23
M  V30 23 1 20 24
M  V30 24 1 21 25
M  V30 25 2 22 26
M  V30 26 1 23 27
M  V30 27 2 25 28
M  V30 28 1 28 29
M  V30 29 2 29 30
M  V30 30 1 29 31
M  V30 31 1 31 32
M  V30 32 1 32 33
M  V30 33 1 32 34 CFG=1
M  V30 34 2 33 35
M  V30 35 1 33 36
M  V30 36 1 35 37
M  V30 37 2 36 38
M  V30 38 2 37 39
M  V30 39 1 37 40
M  V30 40 1 40 41
M  V30 41 1 40 42
M  V30 42 1 10 13
M  V30 43 1 15 16
M  V30 44 1 21 23
M  V30 45 1 26 28
M  V30 46 1 38 39
M  V30 END BOND
M  V30 BEGIN COLLECTION
M  V30 MDLV30/STEABS ATOMS=(1 32)
M  V30 END COLLECTION
M  V30 END CTAB
M  END
>  <Molecule ChEMBL ID>
CHEMBL3699437

>  <Smiles>
CNC(=O)c1ccccc1-c1ccc(Cn2c(C)c(C)c3cc(C(=O)N[C@@H](C)c4cccc(C(C)C)c4)ccc32)cc1

>  <IC50_nM>
76

>  <Assay Description>
Lanthascreen Competitive Binding Assay: The assay was performed according to manufacturer protocol. A mixture of nM GST-PPARG-LBD, 5 nM Tb-GST-antibody, 5 nM Fluormone Pan-PPAR Green, and serial dilutions of the experimental compound, beginning at 10 ׬M downwards, was added to wells of black 384-well low-volume plates (Greiner) to a total volume of 18 ׬L. All dilutions were made in TR-FRET assay buffer C. DMSO at 2% final concentration was used as a no-ligand control. Experiment was performed in triplicate, and incubated for 2 hours in the dark prior to assay read in Perkin Elmer ViewLux ultra HTS microplate reader. FRET signal was measured by excitation at 340 nm and emission at 520 nm for fluorescein and 490 nm for terbium. Fold change over DMSO was calculated using GraphPad Prism Software (La Jolla, Calif.) by calculating 520 nm/490 nm ratio. Graphs were plotted as fold change of FRET signal for compound treatment over DMSO-only control.

$$$$
CHEMBL1783034
Actelion Java MolfileCreator 2.0

  0  0  0  0  0  0              0 V3000
M  V30 BEGIN CTAB
M  V30 COUNTS 31 34 0 0 0
M  V30 BEGIN ATOM
M  V30 1 S 8.7077 -0.4067 0.0 0
M  V30 2 C 9.3769 0.3364 0.0 0
M  V30 3 C 7.7942 0.0 0.0 0 CFG=1
M  V30 4 O 10.3714 0.2318 0.0 0
M  V30 5 N 8.8769 1.2024 0.0 0
M  V30 6 C 6.9282 -0.5 0.0 0
M  V30 7 C 7.8987 0.9945 0.0 0
M  V30 8 C 6.0621 0.0 0.0 0
M  V30 9 C 6.9282 -1.5 0.0 0
M  V30 10 O 7.1556 1.6636 0.0 0
M  V30 11 C 5.1961 -0.5 0.0 0
M  V30 12 C 6.0621 -2.0 0.0 0
M  V30 13 O 4.3301 0.0 0.0 0
M  V30 14 C 5.1961 -1.5 0.0 0
M  V30 15 C 3.4641 -0.5 0.0 0
M  V30 16 C 2.598 0.0 0.0 0
M  V30 17 C 1.732 -0.5 0.0 0
M  V30 18 O 0.866 0.0 0.0 0
M  V30 19 C 0.0 -0.5 0.0 0
M  V30 20 C -0.866 0.0 0.0 0
M  V30 21 C 0.0 -1.4999 0.0 0
M  V30 22 C -1.732 -0.4999 0.0 0
M  V30 23 C -0.866 -1.9999 0.0 0
M  V30 24 C -1.732 -1.4999 0.0 0
M  V30 25 O -2.598 -1.9999 0.0 0
M  V30 26 C -2.598 -2.9999 0.0 0
M  V30 27 C -3.4641 -3.4999 0.0 0
M  V30 28 C -1.732 -3.4999 0.0 0
M  V30 29 C -3.4641 -4.4999 0.0 0
M  V30 30 C -1.732 -4.4999 0.0 0
M  V30 31 C -2.598 -4.9999 0.0 0
M  V30 END ATOM
M  V30 BEGIN BOND
M  V30 1 1 1 2
M  V30 2 1 1 3
M  V30 3 2 2 4
M  V30 4 1 2 5
M  V30 5 1 3 6 CFG=1
M  V30 6 1 3 7
M  V30 7 2 6 8
M  V30 8 1 6 9
M  V30 9 2 7 10
M  V30 10 1 8 11
M  V30 11 2 9 12
M  V30 12 1 11 13
M  V30 13 2 11 14
M  V30 14 1 13 15
M  V30 15 1 15 16
M  V30 16 1 16 17
M  V30 17 1 17 18
M  V30 18 1 18 19
M  V30 19 2 19 20
M  V30 20 1 19 21
M  V30 21 1 20 22
M  V30 22 2 21 23
M  V30 23 2 22 24
M  V30 24 1 24 25
M  V30 25 1 25 26
M  V30 26 2 26 27
M  V30 27 1 26 28
M  V30 28 1 27 29
M  V30 29 2 28 30
M  V30 30 2 29 31
M  V30 31 1 5 7
M  V30 32 1 12 14
M  V30 33 1 23 24
M  V30 34 1 30 31
M  V30 END BOND
M  V30 BEGIN COLLECTION
M  V30 MDLV30/STEABS ATOMS=(1 3)
M  V30 END COLLECTION
M  V30 END CTAB
M  END
>  <Molecule ChEMBL ID>
CHEMBL1783034

>  <Smiles>
O=C1NC(=O)[C@H](c2cccc(OCCCOc3ccc(Oc4ccccc4)cc3)c2)S1

>  <IC50_nM>
76

>  <Assay Description>
Displacement of radio-labeled full agonist from PPARgamma receptor

$$$$
CHEMBL96107
Actelion Java MolfileCreator 2.0

  0  0  0  0  0  0              0 V3000
M  V30 BEGIN CTAB
M  V30 COUNTS 31 34 0 0 0
M  V30 BEGIN ATOM
M  V30 1 S 8.7077 -0.4067 0.0 0
M  V30 2 C 9.3769 0.3364 0.0 0
M  V30 3 C 7.7942 0.0 0.0 0 CFG=2
M  V30 4 O 10.3714 0.2318 0.0 0
M  V30 5 N 8.8769 1.2024 0.0 0
M  V30 6 C 6.9282 -0.5 0.0 0
M  V30 7 C 7.8987 0.9945 0.0 0
M  V30 8 C 6.0621 0.0 0.0 0
M  V30 9 C 6.9282 -1.5 0.0 0
M  V30 10 O 7.1556 1.6636 0.0 0
M  V30 11 C 5.1961 -0.5 0.0 0
M  V30 12 C 6.0621 -2.0 0.0 0
M  V30 13 O 4.3301 0.0 0.0 0
M  V30 14 C 5.1961 -1.5 0.0 0
M  V30 15 C 3.4641 -0.5 0.0 0
M  V30 16 C 2.598 0.0 0.0 0
M  V30 17 C 1.732 -0.5 0.0 0
M  V30 18 O 0.866 0.0 0.0 0
M  V30 19 C 0.0 -0.5 0.0 0
M  V30 20 C -0.866 0.0 0.0 0
M  V30 21 C 0.0 -1.4999 0.0 0
M  V30 22 C -1.732 -0.4999 0.0 0
M  V30 23 C -0.866 -1.9999 0.0 0
M  V30 24 C -1.732 -1.4999 0.0 0
M  V30 25 O -2.598 -1.9999 0.0 0
M  V30 26 C -2.598 -2.9999 0.0 0
M  V30 27 C -3.4641 -3.4999 0.0 0
M  V30 28 C -1.732 -3.4999 0.0 0
M  V30 29 C -3.4641 -4.4999 0.0 0
M  V30 30 C -1.732 -4.4999 0.0 0
M  V30 31 C -2.598 -4.9999 0.0 0
M  V30 END ATOM
M  V30 BEGIN BOND
M  V30 1 1 1 2
M  V30 2 1 1 3
M  V30 3 2 2 4
M  V30 4 1 2 5
M  V30 5 1 3 6 CFG=3
M  V30 6 1 3 7
M  V30 7 2 6 8
M  V30 8 1 6 9
M  V30 9 2 7 10
M  V30 10 1 8 11
M  V30 11 2 9 12
M  V30 12 1 11 13
M  V30 13 2 11 14
M  V30 14 1 13 15
M  V30 15 1 15 16
M  V30 16 1 16 17
M  V30 17 1 17 18
M  V30 18 1 18 19
M  V30 19 2 19 20
M  V30 20 1 19 21
M  V30 21 1 20 22
M  V30 22 2 21 23
M  V30 23 2 22 24
M  V30 24 1 24 25
M  V30 25 1 25 26
M  V30 26 2 26 27
M  V30 27 1 26 28
M  V30 28 1 27 29
M  V30 29 2 28 30
M  V30 30 2 29 31
M  V30 31 1 5 7
M  V30 32 1 12 14
M  V30 33 1 23 24
M  V30 34 1 30 31
M  V30 END BOND
M  V30 BEGIN COLLECTION
M  V30 MDLV30/STERAC1 ATOMS=(1 3)
M  V30 END COLLECTION
M  V30 END CTAB
M  END
>  <Molecule ChEMBL ID>
CHEMBL96107

>  <Smiles>
O=C1NC(=O)C(c2cccc(OCCCOc3ccc(Oc4ccccc4)cc3)c2)S1

>  <IC50_nM>
76

>  <Assay Description>
In vitro binding affinity against human peroxisome proliferator activated receptor gamma

$$$$
CHEMBL3678116
Actelion Java MolfileCreator 2.0

  0  0  0  0  0  0              0 V3000
M  V30 BEGIN CTAB
M  V30 COUNTS 38 41 0 0 0
M  V30 BEGIN ATOM
M  V30 1 O 11.0852 1.4815 0.0 0
M  V30 2 C 10.7761 0.5304 0.0 0
M  V30 3 N 11.4453 -0.2126 0.0 0
M  V30 4 C 9.798 0.3225 0.0 0
M  V30 5 C 11.1363 -1.1637 0.0 0 CFG=2
M  V30 6 C 9.489 -0.6284 0.0 0
M  V30 7 C 9.1289 1.0657 0.0 0
M  V30 8 C 11.8054 -1.9068 0.0 0
M  V30 9 C 10.1581 -1.3716 0.0 0
M  V30 10 C 8.5108 -0.8364 0.0 0
M  V30 11 C 8.1507 0.8577 0.0 0
M  V30 12 C 12.7835 -1.6989 0.0 0
M  V30 13 C 11.4964 -2.8579 0.0 0
M  V30 14 C 7.8417 -0.0932 0.0 0
M  V30 15 C 8.0108 -1.7024 0.0 0
M  V30 16 C 13.4527 -2.4421 0.0 0
M  V30 17 C 12.1655 -3.601 0.0 0
M  V30 18 N 6.9282 -0.5 0.0 0
M  V30 19 C 7.0327 -1.4945 0.0 0
M  V30 20 C 8.4176 -2.6159 0.0 0
M  V30 21 C 13.1436 -3.3931 0.0 0
M  V30 22 C 14.4308 -2.2341 0.0 0
M  V30 23 C 6.0621 0.0 0.0 0
M  V30 24 C 6.2895 -2.1636 0.0 0
M  V30 25 C 14.7398 -1.2831 0.0 0
M  V30 26 C 15.0999 -2.9773 0.0 0
M  V30 27 C 5.1961 -0.5 0.0 0
M  V30 28 C 4.3301 0.0 0.0 0
M  V30 29 C 5.1961 -1.4999 0.0 0
M  V30 30 C 3.4641 -0.5 0.0 0
M  V30 31 C 4.3301 -1.9999 0.0 0
M  V30 32 O 2.598 0.0 0.0 0
M  V30 33 C 3.4641 -1.4999 0.0 0
M  V30 34 C 1.732 -0.5 0.0 0 CFG=2
M  V30 35 C 0.866 0.0 0.0 0
M  V30 36 C 1.732 -1.5 0.0 0
M  V30 37 O 0.866 1.0 0.0 0
M  V30 38 O 0.0 -0.5 0.0 0
M  V30 END ATOM
M  V30 BEGIN BOND
M  V30 1 2 1 2
M  V30 2 1 2 3
M  V30 3 1 2 4
M  V30 4 1 3 5
M  V30 5 2 4 6
M  V30 6 1 4 7
M  V30 7 1 5 8
M  V30 8 1 5 9 CFG=3
M  V30 9 1 6 10
M  V30 10 2 7 11
M  V30 11 2 8 12
M  V30 12 1 8 13
M  V30 13 2 10 14
M  V30 14 1 10 15
M  V30 15 1 12 16
M  V30 16 2 13 17
M  V30 17 1 14 18
M  V30 18 2 15 19
M  V30 19 1 15 20
M  V30 20 2 16 21
M  V30 21 1 16 22
M  V30 22 1 18 23
M  V30 23 1 19 24
M  V30 24 1 22 25
M  V30 25 1 22 26
M  V30 26 1 23 27
M  V30 27 2 27 28
M  V30 28 1 27 29
M  V30 29 1 28 30
M  V30 30 2 29 31
M  V30 31 1 30 32
M  V30 32 2 30 33
M  V30 33 1 32 34
M  V30 34 1 34 35
M  V30 35 1 34 36 CFG=1
M  V30 36 2 35 37
M  V30 37 1 35 38
M  V30 38 1 11 14
M  V30 39 1 17 21
M  V30 40 1 18 19
M  V30 41 1 31 33
M  V30 END BOND
M  V30 BEGIN COLLECTION
M  V30 MDLV30/STEABS ATOMS=(2 5 34)
M  V30 END COLLECTION
M  V30 END CTAB
M  END
>  <Molecule ChEMBL ID>
CHEMBL3678116

>  <Smiles>
Cc1c(C)n(Cc2cccc(O[C@@H](C)C(=O)O)c2)c2ccc(C(=O)N[C@@H](C)c3cccc(C(C)C)c3)cc12

>  <IC50_nM>
76

>  <Assay Description>
Lanthascreen Competitive Binding Assay: The assay was performed according to manufacturer protocol. A mixture of 5 nM GST-PPARG-LBD, 5 nM Tb-GST-antibody, 5 nM Fluormone Pan- PPAR Green, and serial dilutions of the experimental compound, beginning at 10 ׬� downwards, was added to wells of black 384-well low- volume plates (Greiner) to a total volume of 18 xL. All dilutions were made in TR-FRET assay buffer C. DMSO at 2% final concentration was used as a no-ligand control. Experiment was performed in triplicate, and incubated for 2 hours in the dark prior to assay read in Perkin Elmer ViewLux ultra HTS microplate reader. FRET signal was measured by excitation at 340 nm and emission at 520 nm for fluorescein and 490 nm for terbium.

$$$$
CHEMBL121
Actelion Java MolfileCreator 2.0

  0  0  0  0  0  0              0 V3000
M  V30 BEGIN CTAB
M  V30 COUNTS 25 27 0 0 0
M  V30 BEGIN ATOM
M  V30 1 S 7.8987 0.0054 0.0 0
M  V30 2 C 8.8769 -0.2024 0.0 0
M  V30 3 C 7.7942 0.9999 0.0 0 CFG=2
M  V30 4 O 9.2836 -1.1159 0.0 0
M  V30 5 N 9.3769 0.6635 0.0 0
M  V30 6 C 8.7077 1.4067 0.0 0
M  V30 7 C 6.9282 1.4999 0.0 0
M  V30 8 O 8.9156 2.3848 0.0 0
M  V30 9 C 6.0621 0.9999 0.0 0
M  V30 10 C 5.1961 1.4999 0.0 0
M  V30 11 C 6.0621 0.0 0.0 0
M  V30 12 C 4.3301 0.9999 0.0 0
M  V30 13 C 5.1961 -0.5 0.0 0
M  V30 14 C 4.3301 0.0 0.0 0
M  V30 15 O 3.4641 -0.5 0.0 0
M  V30 16 C 2.598 0.0 0.0 0
M  V30 17 C 1.732 -0.5 0.0 0
M  V30 18 N 0.866 0.0 0.0 0
M  V30 19 C 0.866 1.0 0.0 0
M  V30 20 C 0.0 -0.5 0.0 0
M  V30 21 N 1.732 1.4999 0.0 0
M  V30 22 C 0.0 1.4999 0.0 0
M  V30 23 C 1.732 2.5 0.0 0
M  V30 24 C 0.0 2.5 0.0 0
M  V30 25 C 0.866 3.0 0.0 0
M  V30 END ATOM
M  V30 BEGIN BOND
M  V30 1 1 1 2
M  V30 2 1 1 3
M  V30 3 2 2 4
M  V30 4 1 2 5
M  V30 5 1 3 6
M  V30 6 1 3 7 CFG=1
M  V30 7 2 6 8
M  V30 8 1 7 9
M  V30 9 2 9 10
M  V30 10 1 9 11
M  V30 11 1 10 12
M  V30 12 2 11 13
M  V30 13 2 12 14
M  V30 14 1 14 15
M  V30 15 1 15 16
M  V30 16 1 16 17
M  V30 17 1 17 18
M  V30 18 1 18 19
M  V30 19 1 18 20
M  V30 20 2 19 21
M  V30 21 1 19 22
M  V30 22 1 21 23
M  V30 23 2 22 24
M  V30 24 2 23 25
M  V30 25 1 5 6
M  V30 26 1 13 14
M  V30 27 1 24 25
M  V30 END BOND
M  V30 BEGIN COLLECTION
M  V30 MDLV30/STERAC1 ATOMS=(1 3)
M  V30 END COLLECTION
M  V30 END CTAB
M  END
>  <Molecule ChEMBL ID>
CHEMBL121

>  <Smiles>
CN(CCOc1ccc(CC2SC(=O)NC2=O)cc1)c1ccccn1

>  <IC50_nM>
76

>  <Assay Description>
Displacement of fluormone PPAR green tracer ligand from recombinant GST-tagged PPARgamma ligand binding domain (unknown origin) incubated for 4 hrs by competitive fluorescence polarization binding assay

$$$$
CHEMBL3695812
Actelion Java MolfileCreator 2.0

  0  0  0  0  0  0              0 V3000
M  V30 BEGIN CTAB
M  V30 COUNTS 39 43 0 0 0
M  V30 BEGIN ATOM
M  V30 1 O 11.1837 5.7369 0.0 0
M  V30 2 C 10.8747 4.7859 0.0 0
M  V30 3 O 9.8965 4.578 0.0 0
M  V30 4 C 11.5438 4.0427 0.0 0
M  V30 5 C 11.2348 3.0917 0.0 0
M  V30 6 C 12.522 4.2506 0.0 0
M  V30 7 C 10.2566 2.8838 0.0 0
M  V30 8 C 11.9039 2.3485 0.0 0
M  V30 9 C 13.1911 3.5075 0.0 0
M  V30 10 C 9.5875 3.6269 0.0 0
M  V30 11 C 9.9476 1.9327 0.0 0
M  V30 12 C 12.8821 2.5564 0.0 0
M  V30 13 C 8.6094 3.419 0.0 0
M  V30 14 C 8.9695 1.7248 0.0 0
M  V30 15 C 8.3003 2.4679 0.0 0
M  V30 16 C 7.3222 2.26 0.0 0
M  V30 17 N 7.0132 1.309 0.0 0
M  V30 18 C 6.0621 0.9999 0.0 0
M  V30 19 C 7.601 0.5 0.0 0
M  V30 20 C 6.0621 0.0 0.0 0
M  V30 21 C 5.1961 1.4999 0.0 0
M  V30 22 C 7.0132 -0.309 0.0 0
M  V30 23 C 8.601 0.5 0.0 0
M  V30 24 C 5.1961 -0.5 0.0 0
M  V30 25 C 4.3301 0.9999 0.0 0
M  V30 26 C 7.3222 -1.26 0.0 0
M  V30 27 C 4.3301 0.0 0.0 0
M  V30 28 C 3.4641 -0.5 0.0 0
M  V30 29 O 3.4641 -1.5 0.0 0
M  V30 30 N 2.598 0.0 0.0 0
M  V30 31 C 1.732 -0.5 0.0 0
M  V30 32 C 0.866 0.0 0.0 0 CFG=1
M  V30 33 C 0.866 1.0 0.0 0
M  V30 34 C 0.0 -0.5 0.0 0
M  V30 35 C 1.732 1.4999 0.0 0
M  V30 36 C 0.0 1.4999 0.0 0
M  V30 37 C 1.732 2.5 0.0 0
M  V30 38 C 0.0 2.5 0.0 0
M  V30 39 C 0.866 3.0 0.0 0
M  V30 END ATOM
M  V30 BEGIN BOND
M  V30 1 2 1 2
M  V30 2 1 2 3
M  V30 3 1 2 4
M  V30 4 2 4 5
M  V30 5 1 4 6
M  V30 6 1 5 7
M  V30 7 1 5 8
M  V30 8 2 6 9
M  V30 9 2 7 10
M  V30 10 1 7 11
M  V30 11 2 8 12
M  V30 12 1 10 13
M  V30 13 2 11 14
M  V30 14 2 13 15
M  V30 15 1 15 16
M  V30 16 1 16 17
M  V30 17 1 17 18
M  V30 18 1 17 19
M  V30 19 2 18 20
M  V30 20 1 18 21
M  V30 21 2 19 22
M  V30 22 1 19 23
M  V30 23 1 20 24
M  V30 24 2 21 25
M  V30 25 1 22 26
M  V30 26 2 24 27
M  V30 27 1 27 28
M  V30 28 2 28 29
M  V30 29 1 28 30
M  V30 30 1 30 31
M  V30 31 1 31 32
M  V30 32 1 32 33
M  V30 33 1 32 34 CFG=3
M  V30 34 2 33 35
M  V30 35 1 33 36
M  V30 36 1 35 37
M  V30 37 2 36 38
M  V30 38 2 37 39
M  V30 39 1 9 12
M  V30 40 1 14 15
M  V30 41 1 20 22
M  V30 42 1 25 27
M  V30 43 1 38 39
M  V30 END BOND
M  V30 BEGIN COLLECTION
M  V30 MDLV30/STEABS ATOMS=(1 32)
M  V30 END COLLECTION
M  V30 END CTAB
M  END
>  <Molecule ChEMBL ID>
CHEMBL3695812

>  <Smiles>
Cc1c(C)n(Cc2ccc(-c3ccccc3C(=O)O)cc2)c2ccc(C(=O)NC[C@H](C)c3ccccc3)cc12

>  <IC50_nM>
76

>  <Assay Description>
Lanthascreen Competitive Binding Assay: The assay was performed according to manufacturer protocol. A mixture of nM GST-PPARG-LBD, 5 nM Tb-GST-antibody, 5 nM Fluormone Pan-PPAR Green, and serial dilutions of the experimental compound, beginning at 10 ׬M downwards, was added to wells of black 384-well low-volume plates (Greiner) to a total volume of 18 ׬L. All dilutions were made in TR-FRET assay buffer C. DMSO at 2% final concentration was used as a no-ligand control. Experiment was performed in triplicate, and incubated for 2 hours in the dark prior to assay read in Perkin Elmer ViewLux ultra HTS microplate reader. FRET signal was measured by excitation at 340 nm and emission at 520 nm for fluorescein and 490 nm for terbium. Fold change over DMSO was calculated using GraphPad Prism Software (La Jolla, Calif.) by calculating 520 nm/490 nm ratio. Graphs were plotted as fold change of FRET signal for compound treatment over DMSO-only control.

$$$$
CHEMBL3678139
Actelion Java MolfileCreator 2.0

  0  0  0  0  0  0              0 V3000
M  V30 BEGIN CTAB
M  V30 COUNTS 39 43 0 0 0
M  V30 BEGIN ATOM
M  V30 1 Cl 9.0932 0.0 0.0 0
M  V30 2 C 7.7942 -0.75 0.0 0
M  V30 3 C 6.4951 0.0 0.0 0
M  V30 4 C 7.7942 -2.2499 0.0 0
M  V30 5 C 5.1961 -0.75 0.0 0
M  V30 6 C 6.4951 -3.0 0.0 0
M  V30 7 O 3.8971 0.0 0.0 0
M  V30 8 C 5.1961 -2.2499 0.0 0
M  V30 9 C 6.4951 -4.5 0.0 0
M  V30 10 C 2.598 -0.75 0.0 0 CFG=2
M  V30 11 N 7.7942 -5.25 0.0 0
M  V30 12 C 1.299 0.0 0.0 0
M  V30 13 C 2.598 -2.25 0.0 0
M  V30 14 C 7.951 -6.7417 0.0 0
M  V30 15 C 9.1645 -4.6398 0.0 0
M  V30 16 O 1.299 1.5 0.0 0
M  V30 17 O 0.0 -0.75 0.0 0
M  V30 18 C 9.4182 -7.0536 0.0 0
M  V30 19 C 6.9473 -7.8565 0.0 0
M  V30 20 C 10.1682 -5.7546 0.0 0
M  V30 21 C 9.4764 -3.1726 0.0 0
M  V30 22 C 9.8817 -8.4802 0.0 0
M  V30 23 C 7.4108 -9.283 0.0 0
M  V30 24 C 11.66 -5.5978 0.0 0
M  V30 25 C 8.878 -9.5949 0.0 0
M  V30 26 C 9.3415 -11.0215 0.0 0
M  V30 27 O 8.3379 -12.1362 0.0 0
M  V30 28 N 10.8088 -11.3334 0.0 0
M  V30 29 C 11.2723 -12.7599 0.0 0 CFG=2
M  V30 30 C 10.2686 -13.8747 0.0 0
M  V30 31 C 12.7395 -13.0718 0.0 0
M  V30 32 C 8.8014 -13.5628 0.0 0
M  V30 33 C 10.7321 -15.3012 0.0 0
M  V30 34 C 7.7977 -14.6775 0.0 0
M  V30 35 C 9.7284 -16.416 0.0 0
M  V30 36 C 8.2612 -16.1041 0.0 0
M  V30 37 C 6.3305 -14.3656 0.0 0
M  V30 38 C 5.2157 -13.3619 0.0 0
M  V30 39 C 4.9039 -14.8292 0.0 0
M  V30 END ATOM
M  V30 BEGIN BOND
M  V30 1 1 1 2
M  V30 2 2 2 3
M  V30 3 1 2 4
M  V30 4 1 3 5
M  V30 5 2 4 6
M  V30 6 1 5 7
M  V30 7 2 5 8
M  V30 8 1 6 9
M  V30 9 1 7 10
M  V30 10 1 9 11
M  V30 11 1 10 12
M  V30 12 1 10 13 CFG=1
M  V30 13 1 11 14
M  V30 14 1 11 15
M  V30 15 2 12 16
M  V30 16 1 12 17
M  V30 17 2 14 18
M  V30 18 1 14 19
M  V30 19 2 15 20
M  V30 20 1 15 21
M  V30 21 1 18 22
M  V30 22 2 19 23
M  V30 23 1 20 24
M  V30 24 2 22 25
M  V30 25 1 25 26
M  V30 26 2 26 27
M  V30 27 1 26 28
M  V30 28 1 28 29
M  V30 29 1 29 30
M  V30 30 1 29 31 CFG=1
M  V30 31 2 30 32
M  V30 32 1 30 33
M  V30 33 1 32 34
M  V30 34 2 33 35
M  V30 35 2 34 36
M  V30 36 1 34 37
M  V30 37 1 37 38
M  V30 38 1 37 39
M  V30 39 1 6 8
M  V30 40 1 18 20
M  V30 41 1 23 25
M  V30 42 1 35 36
M  V30 43 1 38 39
M  V30 END BOND
M  V30 BEGIN COLLECTION
M  V30 MDLV30/STEABS ATOMS=(2 10 29)
M  V30 END COLLECTION
M  V30 END CTAB
M  END
>  <Molecule ChEMBL ID>
CHEMBL3678139

>  <Smiles>
Cc1c(C)n(Cc2cc(Cl)cc(O[C@@H](C)C(=O)O)c2)c2ccc(C(=O)N[C@@H](C)c3cccc(C4CC4)c3)cc12

>  <IC50_nM>
76

>  <Assay Description>
Lanthascreen Competitive Binding Assay: The assay was performed according to manufacturer protocol. A mixture of 5 nM GST-PPARG-LBD, 5 nM Tb-GST-antibody, 5 nM Fluormone Pan- PPAR Green, and serial dilutions of the experimental compound, beginning at 10 ׬� downwards, was added to wells of black 384-well low- volume plates (Greiner) to a total volume of 18 xL. All dilutions were made in TR-FRET assay buffer C. DMSO at 2% final concentration was used as a no-ligand control. Experiment was performed in triplicate, and incubated for 2 hours in the dark prior to assay read in Perkin Elmer ViewLux ultra HTS microplate reader. FRET signal was measured by excitation at 340 nm and emission at 520 nm for fluorescein and 490 nm for terbium.

$$$$
CHEMBL1783034
Actelion Java MolfileCreator 2.0

  0  0  0  0  0  0              0 V3000
M  V30 BEGIN CTAB
M  V30 COUNTS 31 34 0 0 0
M  V30 BEGIN ATOM
M  V30 1 S 8.7077 -0.4067 0.0 0
M  V30 2 C 9.3769 0.3364 0.0 0
M  V30 3 C 7.7942 0.0 0.0 0 CFG=1
M  V30 4 O 10.3714 0.2318 0.0 0
M  V30 5 N 8.8769 1.2024 0.0 0
M  V30 6 C 6.9282 -0.5 0.0 0
M  V30 7 C 7.8987 0.9945 0.0 0
M  V30 8 C 6.0621 0.0 0.0 0
M  V30 9 C 6.9282 -1.5 0.0 0
M  V30 10 O 7.1556 1.6636 0.0 0
M  V30 11 C 5.1961 -0.5 0.0 0
M  V30 12 C 6.0621 -2.0 0.0 0
M  V30 13 O 4.3301 0.0 0.0 0
M  V30 14 C 5.1961 -1.5 0.0 0
M  V30 15 C 3.4641 -0.5 0.0 0
M  V30 16 C 2.598 0.0 0.0 0
M  V30 17 C 1.732 -0.5 0.0 0
M  V30 18 O 0.866 0.0 0.0 0
M  V30 19 C 0.0 -0.5 0.0 0
M  V30 20 C -0.866 0.0 0.0 0
M  V30 21 C 0.0 -1.4999 0.0 0
M  V30 22 C -1.732 -0.4999 0.0 0
M  V30 23 C -0.866 -1.9999 0.0 0
M  V30 24 C -1.732 -1.4999 0.0 0
M  V30 25 O -2.598 -1.9999 0.0 0
M  V30 26 C -2.598 -2.9999 0.0 0
M  V30 27 C -3.4641 -3.4999 0.0 0
M  V30 28 C -1.732 -3.4999 0.0 0
M  V30 29 C -3.4641 -4.4999 0.0 0
M  V30 30 C -1.732 -4.4999 0.0 0
M  V30 31 C -2.598 -4.9999 0.0 0
M  V30 END ATOM
M  V30 BEGIN BOND
M  V30 1 1 1 2
M  V30 2 1 1 3
M  V30 3 2 2 4
M  V30 4 1 2 5
M  V30 5 1 3 6 CFG=1
M  V30 6 1 3 7
M  V30 7 2 6 8
M  V30 8 1 6 9
M  V30 9 2 7 10
M  V30 10 1 8 11
M  V30 11 2 9 12
M  V30 12 1 11 13
M  V30 13 2 11 14
M  V30 14 1 13 15
M  V30 15 1 15 16
M  V30 16 1 16 17
M  V30 17 1 17 18
M  V30 18 1 18 19
M  V30 19 2 19 20
M  V30 20 1 19 21
M  V30 21 1 20 22
M  V30 22 2 21 23
M  V30 23 2 22 24
M  V30 24 1 24 25
M  V30 25 1 25 26
M  V30 26 2 26 27
M  V30 27 1 26 28
M  V30 28 1 27 29
M  V30 29 2 28 30
M  V30 30 2 29 31
M  V30 31 1 5 7
M  V30 32 1 12 14
M  V30 33 1 23 24
M  V30 34 1 30 31
M  V30 END BOND
M  V30 BEGIN COLLECTION
M  V30 MDLV30/STEABS ATOMS=(1 3)
M  V30 END COLLECTION
M  V30 END CTAB
M  END
>  <Molecule ChEMBL ID>
CHEMBL1783034

>  <Smiles>
O=C1NC(=O)[C@H](c2cccc(OCCCOc3ccc(Oc4ccccc4)cc3)c2)S1

>  <IC50_nM>
76.03

>  <Assay Description>
Agonist activity at PPARgamma

$$$$
CHEMBL96451
Actelion Java MolfileCreator 2.0

  0  0  0  0  0  0              0 V3000
M  V30 BEGIN CTAB
M  V30 COUNTS 35 38 0 0 0
M  V30 BEGIN ATOM
M  V30 1 S 8.7077 -0.4067 0.0 0
M  V30 2 C 9.3769 0.3364 0.0 0
M  V30 3 C 7.7942 0.0 0.0 0 CFG=2
M  V30 4 O 10.3714 0.2318 0.0 0
M  V30 5 N 8.8769 1.2024 0.0 0
M  V30 6 C 6.9282 -0.5 0.0 0
M  V30 7 C 7.8987 0.9945 0.0 0
M  V30 8 C 6.0621 0.0 0.0 0
M  V30 9 C 6.9282 -1.5 0.0 0
M  V30 10 O 7.1556 1.6636 0.0 0
M  V30 11 C 5.1961 -0.5 0.0 0
M  V30 12 C 6.0621 -2.0 0.0 0
M  V30 13 O 4.3301 0.0 0.0 0
M  V30 14 C 5.1961 -1.5 0.0 0
M  V30 15 C 3.4641 -0.5 0.0 0
M  V30 16 C 2.598 0.0 0.0 0
M  V30 17 C 1.732 -0.5 0.0 0
M  V30 18 O 0.866 0.0 0.0 0
M  V30 19 C 0.0 -0.5 0.0 0
M  V30 20 C -0.866 0.0 0.0 0
M  V30 21 C 0.0 -1.4999 0.0 0
M  V30 22 C -1.732 -0.4999 0.0 0
M  V30 23 C -0.866 1.0 0.0 0
M  V30 24 C -0.866 -1.9999 0.0 0
M  V30 25 C -1.732 -1.4999 0.0 0
M  V30 26 C 0.0 1.5 0.0 0
M  V30 27 O -2.598 -1.9999 0.0 0
M  V30 28 C 0.0 2.5 0.0 0
M  V30 29 C -2.598 -2.9999 0.0 0
M  V30 30 C -3.4641 -3.4999 0.0 0
M  V30 31 C -1.732 -3.4999 0.0 0
M  V30 32 C -3.4641 -4.4999 0.0 0
M  V30 33 C -1.732 -4.4999 0.0 0
M  V30 34 C -2.598 -4.9999 0.0 0
M  V30 35 F -2.598 -5.9999 0.0 0
M  V30 END ATOM
M  V30 BEGIN BOND
M  V30 1 1 1 2
M  V30 2 1 1 3
M  V30 3 2 2 4
M  V30 4 1 2 5
M  V30 5 1 3 6 CFG=3
M  V30 6 1 3 7
M  V30 7 2 6 8
M  V30 8 1 6 9
M  V30 9 2 7 10
M  V30 10 1 8 11
M  V30 11 2 9 12
M  V30 12 1 11 13
M  V30 13 2 11 14
M  V30 14 1 13 15
M  V30 15 1 15 16
M  V30 16 1 16 17
M  V30 17 1 17 18
M  V30 18 1 18 19
M  V30 19 2 19 20
M  V30 20 1 19 21
M  V30 21 1 20 22
M  V30 22 1 20 23
M  V30 23 2 21 24
M  V30 24 2 22 25
M  V30 25 1 23 26
M  V30 26 1 25 27
M  V30 27 1 26 28
M  V30 28 1 27 29
M  V30 29 2 29 30
M  V30 30 1 29 31
M  V30 31 1 30 32
M  V30 32 2 31 33
M  V30 33 2 32 34
M  V30 34 1 34 35
M  V30 35 1 5 7
M  V30 36 1 12 14
M  V30 37 1 24 25
M  V30 38 1 33 34
M  V30 END BOND
M  V30 BEGIN COLLECTION
M  V30 MDLV30/STERAC1 ATOMS=(1 3)
M  V30 END COLLECTION
M  V30 END CTAB
M  END
>  <Molecule ChEMBL ID>
CHEMBL96451

>  <Smiles>
CCCc1cc(Oc2ccc(F)cc2)ccc1OCCCOc1cccc(C2SC(=O)NC2=O)c1

>  <IC50_nM>
77

>  <Assay Description>
In vitro binding affinity against human peroxisome proliferator activated receptor gamma

$$$$
CHEMBL1783049
Actelion Java MolfileCreator 2.0

  0  0  0  0  0  0              0 V3000
M  V30 BEGIN CTAB
M  V30 COUNTS 35 38 0 0 0
M  V30 BEGIN ATOM
M  V30 1 S 8.7077 -0.4067 0.0 0
M  V30 2 C 9.3769 0.3364 0.0 0
M  V30 3 C 7.7942 0.0 0.0 0 CFG=1
M  V30 4 O 10.3714 0.2318 0.0 0
M  V30 5 N 8.8769 1.2024 0.0 0
M  V30 6 C 6.9282 -0.5 0.0 0
M  V30 7 C 7.8987 0.9945 0.0 0
M  V30 8 C 6.0621 0.0 0.0 0
M  V30 9 C 6.9282 -1.5 0.0 0
M  V30 10 O 7.1556 1.6636 0.0 0
M  V30 11 C 5.1961 -0.5 0.0 0
M  V30 12 C 6.0621 -2.0 0.0 0
M  V30 13 O 4.3301 0.0 0.0 0
M  V30 14 C 5.1961 -1.5 0.0 0
M  V30 15 C 3.4641 -0.5 0.0 0
M  V30 16 C 2.598 0.0 0.0 0
M  V30 17 C 1.732 -0.5 0.0 0
M  V30 18 O 0.866 0.0 0.0 0
M  V30 19 C 0.0 -0.5 0.0 0
M  V30 20 C -0.866 0.0 0.0 0
M  V30 21 C 0.0 -1.4999 0.0 0
M  V30 22 C -1.732 -0.4999 0.0 0
M  V30 23 C -0.866 1.0 0.0 0
M  V30 24 C -0.866 -1.9999 0.0 0
M  V30 25 C -1.732 -1.4999 0.0 0
M  V30 26 C 0.0 1.5 0.0 0
M  V30 27 O -2.598 -1.9999 0.0 0
M  V30 28 C 0.0 2.5 0.0 0
M  V30 29 C -2.598 -2.9999 0.0 0
M  V30 30 C -3.4641 -3.4999 0.0 0
M  V30 31 C -1.732 -3.4999 0.0 0
M  V30 32 C -3.4641 -4.4999 0.0 0
M  V30 33 C -1.732 -4.4999 0.0 0
M  V30 34 C -2.598 -4.9999 0.0 0
M  V30 35 F -2.598 -5.9999 0.0 0
M  V30 END ATOM
M  V30 BEGIN BOND
M  V30 1 1 1 2
M  V30 2 1 1 3
M  V30 3 2 2 4
M  V30 4 1 2 5
M  V30 5 1 3 6 CFG=1
M  V30 6 1 3 7
M  V30 7 2 6 8
M  V30 8 1 6 9
M  V30 9 2 7 10
M  V30 10 1 8 11
M  V30 11 2 9 12
M  V30 12 1 11 13
M  V30 13 2 11 14
M  V30 14 1 13 15
M  V30 15 1 15 16
M  V30 16 1 16 17
M  V30 17 1 17 18
M  V30 18 1 18 19
M  V30 19 2 19 20
M  V30 20 1 19 21
M  V30 21 1 20 22
M  V30 22 1 20 23
M  V30 23 2 21 24
M  V30 24 2 22 25
M  V30 25 1 23 26
M  V30 26 1 25 27
M  V30 27 1 26 28
M  V30 28 1 27 29
M  V30 29 2 29 30
M  V30 30 1 29 31
M  V30 31 1 30 32
M  V30 32 2 31 33
M  V30 33 2 32 34
M  V30 34 1 34 35
M  V30 35 1 5 7
M  V30 36 1 12 14
M  V30 37 1 24 25
M  V30 38 1 33 34
M  V30 END BOND
M  V30 BEGIN COLLECTION
M  V30 MDLV30/STEABS ATOMS=(1 3)
M  V30 END COLLECTION
M  V30 END CTAB
M  END
>  <Molecule ChEMBL ID>
CHEMBL1783049

>  <Smiles>
CCCc1cc(Oc2ccc(F)cc2)ccc1OCCCOc1cccc([C@@H]2SC(=O)NC2=O)c1

>  <IC50_nM>
77

>  <Assay Description>
Displacement of radio-labeled full agonist from PPARgamma receptor

$$$$
CHEMBL3678163
Actelion Java MolfileCreator 2.0

  0  0  0  0  0  0              0 V3000
M  V30 BEGIN CTAB
M  V30 COUNTS 40 43 0 0 0
M  V30 BEGIN ATOM
M  V30 1 O 11.0852 1.4815 0.0 0
M  V30 2 C 10.7761 0.5304 0.0 0
M  V30 3 N 11.4453 -0.2126 0.0 0
M  V30 4 C 9.798 0.3225 0.0 0
M  V30 5 C 11.1363 -1.1637 0.0 0 CFG=2
M  V30 6 C 9.489 -0.6284 0.0 0
M  V30 7 C 9.1289 1.0657 0.0 0
M  V30 8 C 11.8054 -1.9068 0.0 0
M  V30 9 C 10.1581 -1.3716 0.0 0
M  V30 10 C 8.5108 -0.8364 0.0 0
M  V30 11 C 8.1507 0.8577 0.0 0
M  V30 12 C 12.7835 -1.6989 0.0 0
M  V30 13 C 11.4964 -2.8579 0.0 0
M  V30 14 C 7.8417 -0.0932 0.0 0
M  V30 15 C 8.0108 -1.7024 0.0 0
M  V30 16 C 13.4527 -2.4421 0.0 0
M  V30 17 C 12.1655 -3.601 0.0 0
M  V30 18 N 6.9282 -0.5 0.0 0
M  V30 19 C 7.0327 -1.4945 0.0 0
M  V30 20 C 8.4176 -2.6159 0.0 0
M  V30 21 C 13.1436 -3.3931 0.0 0
M  V30 22 C 14.4308 -2.2341 0.0 0
M  V30 23 C 6.0621 0.0 0.0 0
M  V30 24 C 6.2895 -2.1636 0.0 0
M  V30 25 C 14.7398 -1.2831 0.0 0
M  V30 26 C 15.0999 -2.9773 0.0 0
M  V30 27 C 5.1961 -0.5 0.0 0
M  V30 28 C 4.3301 0.0 0.0 0
M  V30 29 C 5.1961 -1.4999 0.0 0
M  V30 30 C 3.4641 -0.5 0.0 0
M  V30 31 C 4.3301 -1.9999 0.0 0
M  V30 32 O 2.598 0.0 0.0 0
M  V30 33 C 3.4641 -1.4999 0.0 0
M  V30 34 C 1.732 -0.5 0.0 0 CFG=2
M  V30 35 O 2.598 -2.0 0.0 0
M  V30 36 C 0.866 0.0 0.0 0
M  V30 37 C 1.732 -1.5 0.0 0
M  V30 38 C 2.598 -3.0 0.0 0
M  V30 39 O 0.866 1.0 0.0 0
M  V30 40 O 0.0 -0.5 0.0 0
M  V30 END ATOM
M  V30 BEGIN BOND
M  V30 1 2 1 2
M  V30 2 1 2 3
M  V30 3 1 2 4
M  V30 4 1 3 5
M  V30 5 2 4 6
M  V30 6 1 4 7
M  V30 7 1 5 8
M  V30 8 1 5 9 CFG=3
M  V30 9 1 6 10
M  V30 10 2 7 11
M  V30 11 2 8 12
M  V30 12 1 8 13
M  V30 13 2 10 14
M  V30 14 1 10 15
M  V30 15 1 12 16
M  V30 16 2 13 17
M  V30 17 1 14 18
M  V30 18 2 15 19
M  V30 19 1 15 20
M  V30 20 2 16 21
M  V30 21 1 16 22
M  V30 22 1 18 23
M  V30 23 1 19 24
M  V30 24 1 22 25
M  V30 25 1 22 26
M  V30 26 1 23 27
M  V30 27 2 27 28
M  V30 28 1 27 29
M  V30 29 1 28 30
M  V30 30 2 29 31
M  V30 31 1 30 32
M  V30 32 2 30 33
M  V30 33 1 32 34
M  V30 34 1 33 35
M  V30 35 1 34 36
M  V30 36 1 34 37 CFG=1
M  V30 37 1 35 38
M  V30 38 2 36 39
M  V30 39 1 36 40
M  V30 40 1 11 14
M  V30 41 1 17 21
M  V30 42 1 18 19
M  V30 43 1 31 33
M  V30 END BOND
M  V30 BEGIN COLLECTION
M  V30 MDLV30/STEABS ATOMS=(2 5 34)
M  V30 END COLLECTION
M  V30 END CTAB
M  END
>  <Molecule ChEMBL ID>
CHEMBL3678163

>  <Smiles>
COc1ccc(Cn2c(C)c(C)c3cc(C(=O)N[C@@H](C)c4cccc(C(C)C)c4)ccc32)cc1O[C@@H](C)C(=O)O

>  <IC50_nM>
77

>  <Assay Description>
Lanthascreen Competitive Binding Assay: The assay was performed according to manufacturer protocol. A mixture of 5 nM GST-PPARG-LBD, 5 nM Tb-GST-antibody, 5 nM Fluormone Pan- PPAR Green, and serial dilutions of the experimental compound, beginning at 10 ׬� downwards, was added to wells of black 384-well low- volume plates (Greiner) to a total volume of 18 xL. All dilutions were made in TR-FRET assay buffer C. DMSO at 2% final concentration was used as a no-ligand control. Experiment was performed in triplicate, and incubated for 2 hours in the dark prior to assay read in Perkin Elmer ViewLux ultra HTS microplate reader. FRET signal was measured by excitation at 340 nm and emission at 520 nm for fluorescein and 490 nm for terbium.

$$$$
CHEMBL3699439
Actelion Java MolfileCreator 2.0

  0  0  0  0  0  0              0 V3000
M  V30 BEGIN CTAB
M  V30 COUNTS 42 46 0 0 0
M  V30 BEGIN ATOM
M  V30 1 O 10.212 -3.0316 0.0 0
M  V30 2 C 10.8811 -3.7748 0.0 0
M  V30 3 N 11.8592 -3.5669 0.0 0
M  V30 4 C 10.5721 -4.7258 0.0 0
M  V30 5 O 12.5284 -4.31 0.0 0
M  V30 6 C 9.5939 -4.9337 0.0 0
M  V30 7 C 11.2412 -5.469 0.0 0
M  V30 8 C 8.9248 -4.1906 0.0 0
M  V30 9 C 9.2849 -5.8848 0.0 0
M  V30 10 C 10.9322 -6.42 0.0 0
M  V30 11 C 9.2338 -3.2395 0.0 0
M  V30 12 C 7.9466 -4.3985 0.0 0
M  V30 13 C 9.954 -6.6279 0.0 0
M  V30 14 C 8.5647 -2.4964 0.0 0
M  V30 15 C 7.2775 -3.6554 0.0 0
M  V30 16 C 7.5865 -2.7043 0.0 0
M  V30 17 C 6.9174 -1.9612 0.0 0
M  V30 18 N 5.9392 -2.1691 0.0 0
M  V30 19 C 5.1961 -1.4999 0.0 0
M  V30 20 C 5.5325 -3.0826 0.0 0
M  V30 21 C 4.3301 -1.9999 0.0 0
M  V30 22 C 5.1961 -0.4999 0.0 0
M  V30 23 C 4.538 -2.9781 0.0 0
M  V30 24 C 6.0325 -3.9487 0.0 0
M  V30 25 C 3.4641 -1.5 0.0 0
M  V30 26 C 4.3301 0.0 0.0 0
M  V30 27 C 3.8689 -3.7212 0.0 0
M  V30 28 C 3.4641 -0.5 0.0 0
M  V30 29 C 2.598 0.0 0.0 0
M  V30 30 O 2.598 1.0 0.0 0
M  V30 31 N 1.732 -0.5 0.0 0
M  V30 32 C 0.866 0.0 0.0 0 CFG=2
M  V30 33 C 0.866 1.0 0.0 0
M  V30 34 C 0.0 -0.5 0.0 0
M  V30 35 C 1.732 1.5 0.0 0
M  V30 36 C 0.0 1.4999 0.0 0
M  V30 37 C 1.732 2.5 0.0 0
M  V30 38 C 0.0 2.5 0.0 0
M  V30 39 C 0.866 2.9999 0.0 0
M  V30 40 C 2.598 3.0 0.0 0
M  V30 41 C 3.4641 2.5 0.0 0
M  V30 42 C 2.598 4.0 0.0 0
M  V30 END ATOM
M  V30 BEGIN BOND
M  V30 1 2 1 2
M  V30 2 1 2 3
M  V30 3 1 2 4
M  V30 4 1 3 5
M  V30 5 2 4 6
M  V30 6 1 4 7
M  V30 7 1 6 8
M  V30 8 1 6 9
M  V30 9 2 7 10
M  V30 10 2 8 11
M  V30 11 1 8 12
M  V30 12 2 9 13
M  V30 13 1 11 14
M  V30 14 2 12 15
M  V30 15 2 14 16
M  V30 16 1 16 17
M  V30 17 1 17 18
M  V30 18 1 18 19
M  V30 19 1 18 20
M  V30 20 2 19 21
M  V30 21 1 19 22
M  V30 22 2 20 23
M  V30 23 1 20 24
M  V30 24 1 21 25
M  V30 25 2 22 26
M  V30 26 1 23 27
M  V30 27 2 25 28
M  V30 28 1 28 29
M  V30 29 2 29 30
M  V30 30 1 29 31
M  V30 31 1 31 32
M  V30 32 1 32 33
M  V30 33 1 32 34 CFG=1
M  V30 34 2 33 35
M  V30 35 1 33 36
M  V30 36 1 35 37
M  V30 37 2 36 38
M  V30 38 2 37 39
M  V30 39 1 37 40
M  V30 40 1 40 41
M  V30 41 1 40 42
M  V30 42 1 10 13
M  V30 43 1 15 16
M  V30 44 1 21 23
M  V30 45 1 26 28
M  V30 46 1 38 39
M  V30 END BOND
M  V30 BEGIN COLLECTION
M  V30 MDLV30/STEABS ATOMS=(1 32)
M  V30 END COLLECTION
M  V30 END CTAB
M  END
>  <Molecule ChEMBL ID>
CHEMBL3699439

>  <Smiles>
Cc1c(C)n(Cc2ccc(-c3ccccc3C(=O)NO)cc2)c2ccc(C(=O)N[C@@H](C)c3cccc(C(C)C)c3)cc12

>  <IC50_nM>
77

>  <Assay Description>
Lanthascreen Competitive Binding Assay: The assay was performed according to manufacturer protocol. A mixture of nM GST-PPARG-LBD, 5 nM Tb-GST-antibody, 5 nM Fluormone Pan-PPAR Green, and serial dilutions of the experimental compound, beginning at 10 ׬M downwards, was added to wells of black 384-well low-volume plates (Greiner) to a total volume of 18 ׬L. All dilutions were made in TR-FRET assay buffer C. DMSO at 2% final concentration was used as a no-ligand control. Experiment was performed in triplicate, and incubated for 2 hours in the dark prior to assay read in Perkin Elmer ViewLux ultra HTS microplate reader. FRET signal was measured by excitation at 340 nm and emission at 520 nm for fluorescein and 490 nm for terbium. Fold change over DMSO was calculated using GraphPad Prism Software (La Jolla, Calif.) by calculating 520 nm/490 nm ratio. Graphs were plotted as fold change of FRET signal for compound treatment over DMSO-only control.

$$$$
CHEMBL96143
Actelion Java MolfileCreator 2.0

  0  0  0  0  0  0              0 V3000
M  V30 BEGIN CTAB
M  V30 COUNTS 36 39 0 0 0
M  V30 BEGIN ATOM
M  V30 1 S 8.7077 -0.4067 0.0 0
M  V30 2 C 9.3769 0.3364 0.0 0
M  V30 3 C 7.7942 0.0 0.0 0 CFG=2
M  V30 4 O 10.3714 0.2318 0.0 0
M  V30 5 N 8.8769 1.2024 0.0 0
M  V30 6 C 6.9282 -0.5 0.0 0
M  V30 7 C 7.8987 0.9945 0.0 0
M  V30 8 C 6.0621 0.0 0.0 0
M  V30 9 C 6.9282 -1.5 0.0 0
M  V30 10 O 7.1556 1.6636 0.0 0
M  V30 11 C 5.1961 -0.5 0.0 0
M  V30 12 C 6.0621 -2.0 0.0 0
M  V30 13 O 4.3301 0.0 0.0 0
M  V30 14 C 5.1961 -1.5 0.0 0
M  V30 15 C 3.4641 -0.5 0.0 0
M  V30 16 C 2.598 0.0 0.0 0
M  V30 17 C 1.732 -0.5 0.0 0
M  V30 18 O 0.866 0.0 0.0 0
M  V30 19 C 0.0 -0.5 0.0 0
M  V30 20 C -0.866 0.0 0.0 0
M  V30 21 C 0.0 -1.4999 0.0 0
M  V30 22 C -1.732 -0.4999 0.0 0
M  V30 23 C -0.866 1.0 0.0 0
M  V30 24 C -0.866 -1.9999 0.0 0
M  V30 25 C -1.732 -1.4999 0.0 0
M  V30 26 C 0.0 1.5 0.0 0
M  V30 27 O -2.598 -1.9999 0.0 0
M  V30 28 C 0.0 2.5 0.0 0
M  V30 29 C -2.598 -2.9999 0.0 0
M  V30 30 C -3.4641 -3.4999 0.0 0
M  V30 31 C -1.732 -3.4999 0.0 0
M  V30 32 C -3.4641 -4.4999 0.0 0
M  V30 33 C -1.732 -4.4999 0.0 0
M  V30 34 C -2.598 -4.9999 0.0 0
M  V30 35 C -4.3301 -4.9999 0.0 0
M  V30 36 F -2.598 -5.9999 0.0 0
M  V30 END ATOM
M  V30 BEGIN BOND
M  V30 1 1 1 2
M  V30 2 1 1 3
M  V30 3 2 2 4
M  V30 4 1 2 5
M  V30 5 1 3 6 CFG=3
M  V30 6 1 3 7
M  V30 7 2 6 8
M  V30 8 1 6 9
M  V30 9 2 7 10
M  V30 10 1 8 11
M  V30 11 2 9 12
M  V30 12 1 11 13
M  V30 13 2 11 14
M  V30 14 1 13 15
M  V30 15 1 15 16
M  V30 16 1 16 17
M  V30 17 1 17 18
M  V30 18 1 18 19
M  V30 19 2 19 20
M  V30 20 1 19 21
M  V30 21 1 20 22
M  V30 22 1 20 23
M  V30 23 2 21 24
M  V30 24 2 22 25
M  V30 25 1 23 26
M  V30 26 1 25 27
M  V30 27 1 26 28
M  V30 28 1 27 29
M  V30 29 2 29 30
M  V30 30 1 29 31
M  V30 31 1 30 32
M  V30 32 2 31 33
M  V30 33 2 32 34
M  V30 34 1 32 35
M  V30 35 1 34 36
M  V30 36 1 5 7
M  V30 37 1 12 14
M  V30 38 1 24 25
M  V30 39 1 33 34
M  V30 END BOND
M  V30 BEGIN COLLECTION
M  V30 MDLV30/STERAC1 ATOMS=(1 3)
M  V30 END COLLECTION
M  V30 END CTAB
M  END
>  <Molecule ChEMBL ID>
CHEMBL96143

>  <Smiles>
CCCc1cc(Oc2ccc(F)c(C)c2)ccc1OCCCOc1cccc(C2SC(=O)NC2=O)c1

>  <IC50_nM>
78

>  <Assay Description>
In vitro binding affinity against human peroxisome proliferator activated receptor gamma

$$$$
CHEMBL1783057
Actelion Java MolfileCreator 2.0

  0  0  0  0  0  0              0 V3000
M  V30 BEGIN CTAB
M  V30 COUNTS 36 39 0 0 0
M  V30 BEGIN ATOM
M  V30 1 S 8.7077 -0.4067 0.0 0
M  V30 2 C 9.3769 0.3364 0.0 0
M  V30 3 C 7.7942 0.0 0.0 0 CFG=2
M  V30 4 O 10.3714 0.2318 0.0 0
M  V30 5 N 8.8769 1.2024 0.0 0
M  V30 6 C 6.9282 -0.5 0.0 0
M  V30 7 C 7.8987 0.9945 0.0 0
M  V30 8 C 6.0621 0.0 0.0 0
M  V30 9 C 6.9282 -1.5 0.0 0
M  V30 10 O 7.1556 1.6636 0.0 0
M  V30 11 C 5.1961 -0.5 0.0 0
M  V30 12 C 6.0621 -2.0 0.0 0
M  V30 13 O 4.3301 0.0 0.0 0
M  V30 14 C 5.1961 -1.5 0.0 0
M  V30 15 C 3.4641 -0.5 0.0 0
M  V30 16 C 2.598 0.0 0.0 0
M  V30 17 C 1.732 -0.5 0.0 0
M  V30 18 O 0.866 0.0 0.0 0
M  V30 19 C 0.0 -0.5 0.0 0
M  V30 20 C -0.866 0.0 0.0 0
M  V30 21 C 0.0 -1.4999 0.0 0
M  V30 22 C -1.732 -0.4999 0.0 0
M  V30 23 C -0.866 1.0 0.0 0
M  V30 24 C -0.866 -1.9999 0.0 0
M  V30 25 C -1.732 -1.4999 0.0 0
M  V30 26 C 0.0 1.5 0.0 0
M  V30 27 O -2.598 -1.9999 0.0 0
M  V30 28 C 0.0 2.5 0.0 0
M  V30 29 C -2.598 -2.9999 0.0 0
M  V30 30 C -3.4641 -3.4999 0.0 0
M  V30 31 C -1.732 -3.4999 0.0 0
M  V30 32 C -3.4641 -4.4999 0.0 0
M  V30 33 C -1.732 -4.4999 0.0 0
M  V30 34 C -2.598 -4.9999 0.0 0
M  V30 35 C -4.3301 -4.9999 0.0 0
M  V30 36 F -2.598 -5.9999 0.0 0
M  V30 END ATOM
M  V30 BEGIN BOND
M  V30 1 1 1 2
M  V30 2 1 1 3
M  V30 3 2 2 4
M  V30 4 1 2 5
M  V30 5 1 3 6 CFG=3
M  V30 6 1 3 7
M  V30 7 2 6 8
M  V30 8 1 6 9
M  V30 9 2 7 10
M  V30 10 1 8 11
M  V30 11 2 9 12
M  V30 12 1 11 13
M  V30 13 2 11 14
M  V30 14 1 13 15
M  V30 15 1 15 16
M  V30 16 1 16 17
M  V30 17 1 17 18
M  V30 18 1 18 19
M  V30 19 2 19 20
M  V30 20 1 19 21
M  V30 21 1 20 22
M  V30 22 1 20 23
M  V30 23 2 21 24
M  V30 24 2 22 25
M  V30 25 1 23 26
M  V30 26 1 25 27
M  V30 27 1 26 28
M  V30 28 1 27 29
M  V30 29 2 29 30
M  V30 30 1 29 31
M  V30 31 1 30 32
M  V30 32 2 31 33
M  V30 33 2 32 34
M  V30 34 1 32 35
M  V30 35 1 34 36
M  V30 36 1 5 7
M  V30 37 1 12 14
M  V30 38 1 24 25
M  V30 39 1 33 34
M  V30 END BOND
M  V30 BEGIN COLLECTION
M  V30 MDLV30/STEABS ATOMS=(1 3)
M  V30 END COLLECTION
M  V30 END CTAB
M  END
>  <Molecule ChEMBL ID>
CHEMBL1783057

>  <Smiles>
CCCc1cc(Oc2ccc(F)c(C)c2)ccc1OCCCOc1cccc([C@H]2SC(=O)NC2=O)c1

>  <IC50_nM>
78

>  <Assay Description>
Displacement of radio-labeled full agonist from PPARgamma receptor

$$$$
CHEMBL426294
Actelion Java MolfileCreator 2.0

  0  0  0  0  0  0              0 V3000
M  V30 BEGIN CTAB
M  V30 COUNTS 30 33 0 0 0
M  V30 BEGIN ATOM
M  V30 1 O 1.732 -0.5 0.0 0
M  V30 2 C 0.866 0.0 0.0 0
M  V30 3 O 0.866 1.0 0.0 0
M  V30 4 C 0.0 -0.5 0.0 0
M  V30 5 N -0.9135 -0.0932 0.0 0
M  V30 6 C -0.1045 -1.4945 0.0 0
M  V30 7 C -1.1214 0.8848 0.0 0
M  V30 8 C -1.5826 -0.8364 0.0 0
M  V30 9 O 0.6386 -2.1636 0.0 0
M  V30 10 C -1.0826 -1.7024 0.0 0
M  V30 11 C -0.3783 1.554 0.0 0
M  V30 12 C -2.0725 1.1939 0.0 0
M  V30 13 C -2.5826 -0.8364 0.0 0
M  V30 14 C 0.4307 -3.1418 0.0 0
M  V30 15 C -1.5826 -2.5684 0.0 0
M  V30 16 C -0.5862 2.5321 0.0 0
M  V30 17 C -2.2804 2.172 0.0 0
M  V30 18 C -3.0826 -1.7024 0.0 0
M  V30 19 C 1.1738 -3.8109 0.0 0
M  V30 20 C -0.5203 -3.4508 0.0 0
M  V30 21 C -2.5826 -2.5684 0.0 0
M  V30 22 C -1.5372 2.8411 0.0 0
M  V30 23 C 0.9659 -4.789 0.0 0
M  V30 24 C -0.7282 -4.4289 0.0 0
M  V30 25 C -1.7451 3.8193 0.0 0
M  V30 26 O 1.709 -5.4582 0.0 0
M  V30 27 C 0.0148 -5.098 0.0 0
M  V30 28 C -2.7233 3.6114 0.0 0
M  V30 29 C -1.9531 4.7974 0.0 0
M  V30 30 C -0.767 4.0272 0.0 0
M  V30 END ATOM
M  V30 BEGIN BOND
M  V30 1 2 1 2
M  V30 2 1 2 3
M  V30 3 1 2 4
M  V30 4 1 4 5
M  V30 5 2 4 6
M  V30 6 1 5 7
M  V30 7 1 5 8
M  V30 8 1 6 9
M  V30 9 1 6 10
M  V30 10 2 7 11
M  V30 11 1 7 12
M  V30 12 1 8 13
M  V30 13 1 9 14
M  V30 14 1 10 15
M  V30 15 1 11 16
M  V30 16 2 12 17
M  V30 17 2 13 18
M  V30 18 2 14 19
M  V30 19 1 14 20
M  V30 20 2 15 21
M  V30 21 2 16 22
M  V30 22 1 19 23
M  V30 23 2 20 24
M  V30 24 1 22 25
M  V30 25 1 23 26
M  V30 26 2 23 27
M  V30 27 1 25 28
M  V30 28 1 25 29
M  V30 29 1 25 30
M  V30 30 2 8 10
M  V30 31 1 17 22
M  V30 32 1 18 21
M  V30 33 1 24 27
M  V30 END BOND
M  V30 END CTAB
M  END
>  <Molecule ChEMBL ID>
CHEMBL426294

>  <Smiles>
CC(C)(C)c1ccc(-n2c(C(=O)O)c(Oc3cccc(O)c3)c3ccccc32)cc1

>  <IC50_nM>
78

>  <Assay Description>
Inhibitory concentration against human peroxisome proliferator activated receptor gamma in SPA assay

$$$$
CHEMBL3695819
Actelion Java MolfileCreator 2.0

  0  0  0  0  0  0              0 V3000
M  V30 BEGIN CTAB
M  V30 COUNTS 37 41 0 0 0
M  V30 BEGIN ATOM
M  V30 1 O 11.8592 -3.5669 0.0 0
M  V30 2 C 10.8811 -3.7748 0.0 0
M  V30 3 O 10.212 -3.0316 0.0 0
M  V30 4 C 10.5721 -4.7258 0.0 0
M  V30 5 C 9.5939 -4.9337 0.0 0
M  V30 6 C 11.2412 -5.469 0.0 0
M  V30 7 C 8.9248 -4.1906 0.0 0
M  V30 8 C 9.2849 -5.8848 0.0 0
M  V30 9 C 10.9322 -6.42 0.0 0
M  V30 10 C 9.2338 -3.2395 0.0 0
M  V30 11 C 7.9466 -4.3985 0.0 0
M  V30 12 C 9.954 -6.6279 0.0 0
M  V30 13 C 8.5647 -2.4964 0.0 0
M  V30 14 C 7.2775 -3.6554 0.0 0
M  V30 15 C 7.5865 -2.7043 0.0 0
M  V30 16 C 6.9174 -1.9612 0.0 0
M  V30 17 N 5.9392 -2.1691 0.0 0
M  V30 18 C 5.1961 -1.4999 0.0 0
M  V30 19 C 5.5325 -3.0826 0.0 0
M  V30 20 C 4.3301 -1.9999 0.0 0
M  V30 21 C 5.1961 -0.4999 0.0 0
M  V30 22 C 4.538 -2.9781 0.0 0
M  V30 23 C 6.0325 -3.9487 0.0 0
M  V30 24 C 3.4641 -1.5 0.0 0
M  V30 25 C 4.3301 0.0 0.0 0
M  V30 26 C 3.8689 -3.7212 0.0 0
M  V30 27 C 3.4641 -0.5 0.0 0
M  V30 28 C 2.598 0.0 0.0 0
M  V30 29 O 2.598 1.0 0.0 0
M  V30 30 N 1.732 -0.5 0.0 0
M  V30 31 C 0.866 0.0 0.0 0
M  V30 32 C 0.0 -0.5 0.0 0
M  V30 33 C -0.866 0.0 0.0 0
M  V30 34 C 0.0 -1.4999 0.0 0
M  V30 35 C -1.732 -0.4999 0.0 0
M  V30 36 C -0.866 -1.9999 0.0 0
M  V30 37 C -1.732 -1.4999 0.0 0
M  V30 END ATOM
M  V30 BEGIN BOND
M  V30 1 2 1 2
M  V30 2 1 2 3
M  V30 3 1 2 4
M  V30 4 2 4 5
M  V30 5 1 4 6
M  V30 6 1 5 7
M  V30 7 1 5 8
M  V30 8 2 6 9
M  V30 9 2 7 10
M  V30 10 1 7 11
M  V30 11 2 8 12
M  V30 12 1 10 13
M  V30 13 2 11 14
M  V30 14 2 13 15
M  V30 15 1 15 16
M  V30 16 1 16 17
M  V30 17 1 17 18
M  V30 18 1 17 19
M  V30 19 2 18 20
M  V30 20 1 18 21
M  V30 21 2 19 22
M  V30 22 1 19 23
M  V30 23 1 20 24
M  V30 24 2 21 25
M  V30 25 1 22 26
M  V30 26 2 24 27
M  V30 27 1 27 28
M  V30 28 2 28 29
M  V30 29 1 28 30
M  V30 30 1 30 31
M  V30 31 1 31 32
M  V30 32 1 32 33
M  V30 33 1 32 34
M  V30 34 1 33 35
M  V30 35 1 34 36
M  V30 36 1 35 37
M  V30 37 1 9 12
M  V30 38 1 14 15
M  V30 39 1 20 22
M  V30 40 1 25 27
M  V30 41 1 36 37
M  V30 END BOND
M  V30 END CTAB
M  END
>  <Molecule ChEMBL ID>
CHEMBL3695819

>  <Smiles>
Cc1c(C)n(Cc2ccc(-c3ccccc3C(=O)O)cc2)c2ccc(C(=O)NCC3CCCCC3)cc12

>  <IC50_nM>
78

>  <Assay Description>
Binding affinity to GST-tagged PPAR-gamma-LBD (unknown origin) after 2 hrs by Lantha screen assay using fluormone Pan-PPAR green probe

$$$$
CHEMBL3695819
Actelion Java MolfileCreator 2.0

  0  0  0  0  0  0              0 V3000
M  V30 BEGIN CTAB
M  V30 COUNTS 37 41 0 0 0
M  V30 BEGIN ATOM
M  V30 1 O 11.8592 -3.5669 0.0 0
M  V30 2 C 10.8811 -3.7748 0.0 0
M  V30 3 O 10.212 -3.0316 0.0 0
M  V30 4 C 10.5721 -4.7258 0.0 0
M  V30 5 C 9.5939 -4.9337 0.0 0
M  V30 6 C 11.2412 -5.469 0.0 0
M  V30 7 C 8.9248 -4.1906 0.0 0
M  V30 8 C 9.2849 -5.8848 0.0 0
M  V30 9 C 10.9322 -6.42 0.0 0
M  V30 10 C 9.2338 -3.2395 0.0 0
M  V30 11 C 7.9466 -4.3985 0.0 0
M  V30 12 C 9.954 -6.6279 0.0 0
M  V30 13 C 8.5647 -2.4964 0.0 0
M  V30 14 C 7.2775 -3.6554 0.0 0
M  V30 15 C 7.5865 -2.7043 0.0 0
M  V30 16 C 6.9174 -1.9612 0.0 0
M  V30 17 N 5.9392 -2.1691 0.0 0
M  V30 18 C 5.1961 -1.4999 0.0 0
M  V30 19 C 5.5325 -3.0826 0.0 0
M  V30 20 C 4.3301 -1.9999 0.0 0
M  V30 21 C 5.1961 -0.4999 0.0 0
M  V30 22 C 4.538 -2.9781 0.0 0
M  V30 23 C 6.0325 -3.9487 0.0 0
M  V30 24 C 3.4641 -1.5 0.0 0
M  V30 25 C 4.3301 0.0 0.0 0
M  V30 26 C 3.8689 -3.7212 0.0 0
M  V30 27 C 3.4641 -0.5 0.0 0
M  V30 28 C 2.598 0.0 0.0 0
M  V30 29 O 2.598 1.0 0.0 0
M  V30 30 N 1.732 -0.5 0.0 0
M  V30 31 C 0.866 0.0 0.0 0
M  V30 32 C 0.0 -0.5 0.0 0
M  V30 33 C -0.866 0.0 0.0 0
M  V30 34 C 0.0 -1.4999 0.0 0
M  V30 35 C -1.732 -0.4999 0.0 0
M  V30 36 C -0.866 -1.9999 0.0 0
M  V30 37 C -1.732 -1.4999 0.0 0
M  V30 END ATOM
M  V30 BEGIN BOND
M  V30 1 2 1 2
M  V30 2 1 2 3
M  V30 3 1 2 4
M  V30 4 2 4 5
M  V30 5 1 4 6
M  V30 6 1 5 7
M  V30 7 1 5 8
M  V30 8 2 6 9
M  V30 9 2 7 10
M  V30 10 1 7 11
M  V30 11 2 8 12
M  V30 12 1 10 13
M  V30 13 2 11 14
M  V30 14 2 13 15
M  V30 15 1 15 16
M  V30 16 1 16 17
M  V30 17 1 17 18
M  V30 18 1 17 19
M  V30 19 2 18 20
M  V30 20 1 18 21
M  V30 21 2 19 22
M  V30 22 1 19 23
M  V30 23 1 20 24
M  V30 24 2 21 25
M  V30 25 1 22 26
M  V30 26 2 24 27
M  V30 27 1 27 28
M  V30 28 2 28 29
M  V30 29 1 28 30
M  V30 30 1 30 31
M  V30 31 1 31 32
M  V30 32 1 32 33
M  V30 33 1 32 34
M  V30 34 1 33 35
M  V30 35 1 34 36
M  V30 36 1 35 37
M  V30 37 1 9 12
M  V30 38 1 14 15
M  V30 39 1 20 22
M  V30 40 1 25 27
M  V30 41 1 36 37
M  V30 END BOND
M  V30 END CTAB
M  END
>  <Molecule ChEMBL ID>
CHEMBL3695819

>  <Smiles>
Cc1c(C)n(Cc2ccc(-c3ccccc3C(=O)O)cc2)c2ccc(C(=O)NCC3CCCCC3)cc12

>  <IC50_nM>
78

>  <Assay Description>
Lanthascreen Competitive Binding Assay: The assay was performed according to manufacturer protocol. A mixture of nM GST-PPARG-LBD, 5 nM Tb-GST-antibody, 5 nM Fluormone Pan-PPAR Green, and serial dilutions of the experimental compound, beginning at 10 ׬M downwards, was added to wells of black 384-well low-volume plates (Greiner) to a total volume of 18 ׬L. All dilutions were made in TR-FRET assay buffer C. DMSO at 2% final concentration was used as a no-ligand control. Experiment was performed in triplicate, and incubated for 2 hours in the dark prior to assay read in Perkin Elmer ViewLux ultra HTS microplate reader. FRET signal was measured by excitation at 340 nm and emission at 520 nm for fluorescein and 490 nm for terbium. Fold change over DMSO was calculated using GraphPad Prism Software (La Jolla, Calif.) by calculating 520 nm/490 nm ratio. Graphs were plotted as fold change of FRET signal for compound treatment over DMSO-only control.

$$$$
CHEMBL179604
Actelion Java MolfileCreator 2.0

  0  0  0  0  0  0              0 V3000
M  V30 BEGIN CTAB
M  V30 COUNTS 35 38 0 0 0
M  V30 BEGIN ATOM
M  V30 1 Cl 14.1004 -2.8834 0.0 0
M  V30 2 C 13.4903 -1.5131 0.0 0
M  V30 3 C 14.372 -0.2996 0.0 0
M  V30 4 C 11.9985 -1.3563 0.0 0
M  V30 5 C 13.7619 1.0707 0.0 0
M  V30 6 C 11.3884 0.0139 0.0 0
M  V30 7 C 12.2701 1.2275 0.0 0
M  V30 8 C 11.66 2.5978 0.0 0
M  V30 9 O 12.5417 3.8113 0.0 0
M  V30 10 N 10.1682 2.7546 0.0 0
M  V30 11 C 9.4182 4.0536 0.0 0
M  V30 12 C 9.1645 1.6398 0.0 0
M  V30 13 C 7.951 3.7417 0.0 0
M  V30 14 C 9.8817 5.4802 0.0 0
M  V30 15 C 7.7942 2.25 0.0 0
M  V30 16 C 9.4764 0.1726 0.0 0
M  V30 17 C 6.9473 4.8565 0.0 0
M  V30 18 C 8.878 6.5949 0.0 0
M  V30 19 C 6.4951 1.5 0.0 0
M  V30 20 C 7.4108 6.283 0.0 0
M  V30 21 C 6.4951 0.0 0.0 0
M  V30 22 O 6.4071 7.3978 0.0 0
M  V30 23 C 5.1961 -0.75 0.0 0
M  V30 24 C 7.7942 -0.75 0.0 0
M  V30 25 C 4.9399 7.0859 0.0 0
M  V30 26 O 3.8971 0.0 0.0 0
M  V30 27 C 5.1961 -2.25 0.0 0
M  V30 28 C 7.7942 -2.25 0.0 0
M  V30 29 C 2.598 -0.75 0.0 0
M  V30 30 C 6.4951 -3.0 0.0 0
M  V30 31 C 1.299 0.0 0.0 0
M  V30 32 C 1.848 -2.049 0.0 0
M  V30 33 C 3.348 -2.049 0.0 0
M  V30 34 O 1.299 1.5 0.0 0
M  V30 35 O 0.0 -0.75 0.0 0
M  V30 END ATOM
M  V30 BEGIN BOND
M  V30 1 1 1 2
M  V30 2 2 2 3
M  V30 3 1 2 4
M  V30 4 1 3 5
M  V30 5 2 4 6
M  V30 6 2 5 7
M  V30 7 1 7 8
M  V30 8 2 8 9
M  V30 9 1 8 10
M  V30 10 1 10 11
M  V30 11 1 10 12
M  V30 12 2 11 13
M  V30 13 1 11 14
M  V30 14 2 12 15
M  V30 15 1 12 16
M  V30 16 1 13 17
M  V30 17 2 14 18
M  V30 18 1 15 19
M  V30 19 2 17 20
M  V30 20 1 19 21
M  V30 21 1 20 22
M  V30 22 2 21 23
M  V30 23 1 21 24
M  V30 24 1 22 25
M  V30 25 1 23 26
M  V30 26 1 23 27
M  V30 27 2 24 28
M  V30 28 1 26 29
M  V30 29 2 27 30
M  V30 30 1 29 31
M  V30 31 1 29 32
M  V30 32 1 29 33
M  V30 33 2 31 34
M  V30 34 1 31 35
M  V30 35 1 6 7
M  V30 36 1 13 15
M  V30 37 1 18 20
M  V30 38 1 28 30
M  V30 END BOND
M  V30 END CTAB
M  END
>  <Molecule ChEMBL ID>
CHEMBL179604

>  <Smiles>
COc1ccc2c(c1)c(Cc1ccccc1OC(C)(C)C(=O)O)c(C)n2C(=O)c1ccc(Cl)cc1

>  <IC50_nM>
79

>  <Assay Description>
In vitro inhibition of human Peroxisome proliferator activated receptor gamma

$$$$
CHEMBL3695909
Actelion Java MolfileCreator 2.0

  0  0  0  0  0  0              0 V3000
M  V30 BEGIN CTAB
M  V30 COUNTS 37 41 0 0 0
M  V30 BEGIN ATOM
M  V30 1 O 4.6457 5.2326 0.0 0
M  V30 2 C 5.3148 4.4895 0.0 0
M  V30 3 O 5.0058 3.5384 0.0 0
M  V30 4 C 6.293 4.6974 0.0 0
M  V30 5 C 6.9621 3.9542 0.0 0
M  V30 6 C 6.602 5.6484 0.0 0
M  V30 7 C 7.9402 4.1621 0.0 0
M  V30 8 C 7.5801 5.8563 0.0 0
M  V30 9 C 8.6094 3.419 0.0 0
M  V30 10 C 8.2493 5.1132 0.0 0
M  V30 11 C 8.3003 2.4679 0.0 0
M  V30 12 C 9.5875 3.6269 0.0 0
M  V30 13 C 8.9695 1.7248 0.0 0
M  V30 14 C 7.3222 2.26 0.0 0
M  V30 15 C 10.2566 2.8838 0.0 0
M  V30 16 C 9.9476 1.9327 0.0 0
M  V30 17 N 7.0132 1.309 0.0 0
M  V30 18 C 6.0621 0.9999 0.0 0
M  V30 19 C 7.601 0.5 0.0 0
M  V30 20 C 6.0621 0.0 0.0 0
M  V30 21 C 5.1961 1.4999 0.0 0
M  V30 22 C 7.0132 -0.309 0.0 0
M  V30 23 C 5.1961 -0.5 0.0 0
M  V30 24 C 4.3301 0.9999 0.0 0
M  V30 25 C 4.3301 0.0 0.0 0
M  V30 26 C 3.4641 -0.5 0.0 0
M  V30 27 O 3.4641 -1.5 0.0 0
M  V30 28 N 2.598 0.0 0.0 0
M  V30 29 C 1.732 -0.5 0.0 0 CFG=2
M  V30 30 C 1.732 -1.5 0.0 0
M  V30 31 C 0.866 0.0 0.0 0
M  V30 32 C 0.866 -1.9999 0.0 0
M  V30 33 C 2.598 -2.0 0.0 0
M  V30 34 C 0.0 -0.5 0.0 0
M  V30 35 C 0.866 -2.9999 0.0 0
M  V30 36 C 2.598 -3.0 0.0 0
M  V30 37 C 1.732 -3.5 0.0 0
M  V30 END ATOM
M  V30 BEGIN BOND
M  V30 1 2 1 2
M  V30 2 1 2 3
M  V30 3 1 2 4
M  V30 4 2 4 5
M  V30 5 1 4 6
M  V30 6 1 5 7
M  V30 7 2 6 8
M  V30 8 1 7 9
M  V30 9 2 7 10
M  V30 10 2 9 11
M  V30 11 1 9 12
M  V30 12 1 11 13
M  V30 13 1 11 14
M  V30 14 2 12 15
M  V30 15 2 13 16
M  V30 16 1 14 17
M  V30 17 1 17 18
M  V30 18 1 17 19
M  V30 19 2 18 20
M  V30 20 1 18 21
M  V30 21 2 19 22
M  V30 22 1 20 23
M  V30 23 2 21 24
M  V30 24 2 23 25
M  V30 25 1 25 26
M  V30 26 2 26 27
M  V30 27 1 26 28
M  V30 28 1 29 28 CFG=3
M  V30 29 1 29 30
M  V30 30 1 29 31
M  V30 31 2 30 32
M  V30 32 1 30 33
M  V30 33 1 31 34
M  V30 34 1 32 35
M  V30 35 2 33 36
M  V30 36 2 35 37
M  V30 37 1 8 10
M  V30 38 1 15 16
M  V30 39 1 20 22
M  V30 40 1 24 25
M  V30 41 1 36 37
M  V30 END BOND
M  V30 BEGIN COLLECTION
M  V30 MDLV30/STEABS ATOMS=(1 29)
M  V30 END COLLECTION
M  V30 END CTAB
M  END
>  <Molecule ChEMBL ID>
CHEMBL3695909

>  <Smiles>
CC[C@H](NC(=O)c1ccc2c(ccn2Cc2ccccc2-c2cccc(C(=O)O)c2)c1)c1ccccc1

>  <IC50_nM>
80

>  <Assay Description>
Lanthascreen Competitive Binding Assay: The assay was performed according to manufacturer protocol. A mixture of nM GST-PPARG-LBD, 5 nM Tb-GST-antibody, 5 nM Fluormone Pan-PPAR Green, and serial dilutions of the experimental compound, beginning at 10 ׬M downwards, was added to wells of black 384-well low-volume plates (Greiner) to a total volume of 18 ׬L. All dilutions were made in TR-FRET assay buffer C. DMSO at 2% final concentration was used as a no-ligand control. Experiment was performed in triplicate, and incubated for 2 hours in the dark prior to assay read in Perkin Elmer ViewLux ultra HTS microplate reader. FRET signal was measured by excitation at 340 nm and emission at 520 nm for fluorescein and 490 nm for terbium. Fold change over DMSO was calculated using GraphPad Prism Software (La Jolla, Calif.) by calculating 520 nm/490 nm ratio. Graphs were plotted as fold change of FRET signal for compound treatment over DMSO-only control.

$$$$
CHEMBL3695880
Actelion Java MolfileCreator 2.0

  0  0  0  0  0  0              0 V3000
M  V30 BEGIN CTAB
M  V30 COUNTS 40 44 0 0 0
M  V30 BEGIN ATOM
M  V30 1 O 6.4951 0.0 0.0 0
M  V30 2 C 5.1961 -0.75 0.0 0
M  V30 3 N 3.8971 0.0 0.0 0
M  V30 4 C 5.1961 -2.25 0.0 0
M  V30 5 C 3.8971 1.4999 0.0 0 CFG=2
M  V30 6 C 6.4951 -3.0 0.0 0
M  V30 7 C 3.8971 -3.0 0.0 0
M  V30 8 C 2.598 2.25 0.0 0
M  V30 9 C 5.1961 2.2499 0.0 0
M  V30 10 C 6.4951 -4.5 0.0 0
M  V30 11 C 3.8971 -4.5 0.0 0
M  V30 12 C 2.598 3.75 0.0 0
M  V30 13 C 1.299 1.5 0.0 0
M  V30 14 C 6.4951 1.5 0.0 0
M  V30 15 C 5.1961 3.75 0.0 0
M  V30 16 C 5.1961 -5.25 0.0 0
M  V30 17 C 7.6099 -5.5036 0.0 0
M  V30 18 C 1.299 4.5 0.0 0
M  V30 19 C 0.0 2.25 0.0 0
M  V30 20 N 5.508 -6.7172 0.0 0
M  V30 21 C 6.9998 -6.874 0.0 0
M  V30 22 C 9.0771 -5.1918 0.0 0
M  V30 23 C 0.0 3.75 0.0 0
M  V30 24 C 1.299 6.0 0.0 0
M  V30 25 C 4.5043 -7.8319 0.0 0
M  V30 26 C 7.7498 -8.173 0.0 0
M  V30 27 C 2.598 6.75 0.0 0
M  V30 28 C 0.0 6.75 0.0 0
M  V30 29 C 4.9678 -9.2585 0.0 0
M  V30 30 C 3.9641 -10.3732 0.0 0
M  V30 31 C 6.435 -9.5703 0.0 0
M  V30 32 C 4.4276 -11.7998 0.0 0
M  V30 33 C 6.8985 -10.9969 0.0 0
M  V30 34 C 5.8949 -12.1116 0.0 0
M  V30 35 C 6.3584 -13.5382 0.0 0
M  V30 36 C 5.3547 -14.6529 0.0 0
M  V30 37 C 7.8256 -13.8501 0.0 0
M  V30 38 C 5.8182 -16.0795 0.0 0
M  V30 39 C 8.2891 -15.2767 0.0 0
M  V30 40 C 7.2854 -16.3914 0.0 0
M  V30 END ATOM
M  V30 BEGIN BOND
M  V30 1 2 1 2
M  V30 2 1 2 3
M  V30 3 1 2 4
M  V30 4 1 5 3 CFG=3
M  V30 5 2 4 6
M  V30 6 1 4 7
M  V30 7 1 5 8
M  V30 8 1 5 9
M  V30 9 1 6 10
M  V30 10 2 7 11
M  V30 11 2 8 12
M  V30 12 1 8 13
M  V30 13 1 9 14
M  V30 14 1 9 15
M  V30 15 2 10 16
M  V30 16 1 10 17
M  V30 17 1 12 18
M  V30 18 2 13 19
M  V30 19 1 16 20
M  V30 20 2 17 21
M  V30 21 1 17 22
M  V30 22 2 18 23
M  V30 23 1 18 24
M  V30 24 1 20 25
M  V30 25 1 21 26
M  V30 26 1 24 27
M  V30 27 1 24 28
M  V30 28 1 25 29
M  V30 29 2 29 30
M  V30 30 1 29 31
M  V30 31 1 30 32
M  V30 32 2 31 33
M  V30 33 2 32 34
M  V30 34 1 34 35
M  V30 35 2 35 36
M  V30 36 1 35 37
M  V30 37 1 36 38
M  V30 38 2 37 39
M  V30 39 2 38 40
M  V30 40 1 11 16
M  V30 41 1 19 23
M  V30 42 1 20 21
M  V30 43 1 33 34
M  V30 44 1 39 40
M  V30 END BOND
M  V30 BEGIN COLLECTION
M  V30 MDLV30/STEABS ATOMS=(1 5)
M  V30 END COLLECTION
M  V30 END CTAB
M  END
>  <Molecule ChEMBL ID>
CHEMBL3695880

>  <Smiles>
Cc1c(C)n(Cc2ccc(-c3ccccc3)cc2)c2ccc(C(=O)N[C@H](c3cccc(C(C)C)c3)C(C)C)cc12

>  <IC50_nM>
80

>  <Assay Description>
Lanthascreen Competitive Binding Assay: The assay was performed according to manufacturer protocol. A mixture of nM GST-PPARG-LBD, 5 nM Tb-GST-antibody, 5 nM Fluormone Pan-PPAR Green, and serial dilutions of the experimental compound, beginning at 10 ׬M downwards, was added to wells of black 384-well low-volume plates (Greiner) to a total volume of 18 ׬L. All dilutions were made in TR-FRET assay buffer C. DMSO at 2% final concentration was used as a no-ligand control. Experiment was performed in triplicate, and incubated for 2 hours in the dark prior to assay read in Perkin Elmer ViewLux ultra HTS microplate reader. FRET signal was measured by excitation at 340 nm and emission at 520 nm for fluorescein and 490 nm for terbium. Fold change over DMSO was calculated using GraphPad Prism Software (La Jolla, Calif.) by calculating 520 nm/490 nm ratio. Graphs were plotted as fold change of FRET signal for compound treatment over DMSO-only control.

$$$$
CHEMBL221342
Actelion Java MolfileCreator 2.0

  0  0  0  0  0  0              0 V3000
M  V30 BEGIN CTAB
M  V30 COUNTS 36 39 0 0 0
M  V30 BEGIN ATOM
M  V30 1 S 3.8971 0.0 0.0 0
M  V30 2 O 4.6471 1.299 0.0 0
M  V30 3 O 3.1471 1.299 0.0 0
M  V30 4 N 2.598 -0.75 0.0 0
M  V30 5 C 5.1961 -0.75 0.0 0
M  V30 6 C 1.299 0.0 0.0 0
M  V30 7 C 5.1961 -2.25 0.0 0
M  V30 8 C 6.4951 0.0 0.0 0
M  V30 9 O 1.299 1.5 0.0 0
M  V30 10 C 0.0 -0.75 0.0 0
M  V30 11 C 6.4951 -3.0 0.0 0
M  V30 12 C 7.7942 -0.75 0.0 0
M  V30 13 N -1.3703 -0.1398 0.0 0
M  V30 14 C -0.1567 -2.2417 0.0 0
M  V30 15 C 7.7942 -2.25 0.0 0
M  V30 16 C 6.4951 -4.5 0.0 0
M  V30 17 C -2.374 -1.2546 0.0 0
M  V30 18 C -1.6821 1.3273 0.0 0
M  V30 19 C -1.624 -2.5536 0.0 0
M  V30 20 F 7.9951 -4.5 0.0 0
M  V30 21 F 6.4951 -6.0 0.0 0
M  V30 22 F 4.9951 -4.5 0.0 0
M  V30 23 C -3.874 -1.2546 0.0 0
M  V30 24 C -3.1087 1.7908 0.0 0
M  V30 25 C -2.374 -3.8526 0.0 0
M  V30 26 C -4.624 -2.5536 0.0 0
M  V30 27 C -3.4206 3.258 0.0 0
M  V30 28 C -4.2234 0.7871 0.0 0
M  V30 29 C -3.874 -3.8526 0.0 0
M  V30 30 C -4.8472 3.7216 0.0 0
M  V30 31 C -5.65 1.2506 0.0 0
M  V30 32 C -5.9619 2.7179 0.0 0
M  V30 33 C -5.159 5.1888 0.0 0
M  V30 34 F -6.6263 4.8769 0.0 0
M  V30 35 F -5.4709 6.656 0.0 0
M  V30 36 F -3.6918 5.5006 0.0 0
M  V30 END ATOM
M  V30 BEGIN BOND
M  V30 1 2 1 2
M  V30 2 2 1 3
M  V30 3 1 1 4
M  V30 4 1 1 5
M  V30 5 1 4 6
M  V30 6 2 5 7
M  V30 7 1 5 8
M  V30 8 2 6 9
M  V30 9 1 6 10
M  V30 10 1 7 11
M  V30 11 2 8 12
M  V30 12 1 10 13
M  V30 13 2 10 14
M  V30 14 2 11 15
M  V30 15 1 11 16
M  V30 16 1 13 17
M  V30 17 1 13 18
M  V30 18 1 14 19
M  V30 19 1 16 20
M  V30 20 1 16 21
M  V30 21 1 16 22
M  V30 22 1 17 23
M  V30 23 1 18 24
M  V30 24 1 19 25
M  V30 25 2 23 26
M  V30 26 2 24 27
M  V30 27 1 24 28
M  V30 28 2 25 29
M  V30 29 1 27 30
M  V30 30 2 28 31
M  V30 31 2 30 32
M  V30 32 1 30 33
M  V30 33 1 33 34
M  V30 34 1 33 35
M  V30 35 1 33 36
M  V30 36 1 12 15
M  V30 37 2 17 19
M  V30 38 1 26 29
M  V30 39 1 31 32
M  V30 END BOND
M  V30 END CTAB
M  END
>  <Molecule ChEMBL ID>
CHEMBL221342

>  <Smiles>
O=C(NS(=O)(=O)c1cccc(C(F)(F)F)c1)c1cc2ccccc2n1Cc1cccc(C(F)(F)F)c1

>  <IC50_nM>
80

>  <Assay Description>
Displacement of Fluormone from PPAR gamma

$$$$
CHEMBL3398444
Actelion Java MolfileCreator 2.0

  0  0  0  0  0  0              0 V3000
M  V30 BEGIN CTAB
M  V30 COUNTS 36 40 0 0 0
M  V30 BEGIN ATOM
M  V30 1 O 9.0007 1.1939 0.0 0
M  V30 2 C 8.0496 0.8848 0.0 0
M  V30 3 O 7.3065 1.554 0.0 0
M  V30 4 C 7.8417 -0.0932 0.0 0 CFG=2
M  V30 5 C 6.9282 -0.5 0.0 0 CFG=1
M  V30 6 C 8.5108 -0.8364 0.0 0
M  V30 7 C 7.0327 -1.4945 0.0 0
M  V30 8 C 6.0621 0.0 0.0 0
M  V30 9 N 8.0108 -1.7024 0.0 0
M  V30 10 C 5.1961 -0.5 0.0 0
M  V30 11 C 8.4176 -2.6159 0.0 0
M  V30 12 C 4.3301 0.0 0.0 0
M  V30 13 C 5.1961 -1.4999 0.0 0
M  V30 14 C 7.8298 -3.4249 0.0 0
M  V30 15 C 9.4121 -2.7205 0.0 0
M  V30 16 C 3.4641 -0.5 0.0 0
M  V30 17 C 4.3301 -1.9999 0.0 0
M  V30 18 C 8.2365 -4.3385 0.0 0
M  V30 19 C 9.8188 -3.634 0.0 0
M  V30 20 O 2.598 0.0 0.0 0
M  V30 21 C 3.4641 -1.4999 0.0 0
M  V30 22 C 9.231 -4.443 0.0 0
M  V30 23 C 1.732 -0.5 0.0 0
M  V30 24 C 0.866 0.0 0.0 0
M  V30 25 C 0.0 -0.5 0.0 0
M  V30 26 N -0.9135 -0.0932 0.0 0
M  V30 27 C -0.1045 -1.4945 0.0 0
M  V30 28 C -1.5826 -0.8364 0.0 0
M  V30 29 O -1.0826 -1.7024 0.0 0
M  V30 30 C 0.6386 -2.1636 0.0 0
M  V30 31 C -2.5771 -0.7318 0.0 0
M  V30 32 C -2.9839 0.1816 0.0 0
M  V30 33 C -3.1649 -1.5408 0.0 0
M  V30 34 C -3.9784 0.2861 0.0 0
M  V30 35 C -4.1595 -1.4363 0.0 0
M  V30 36 C -4.5662 -0.5228 0.0 0
M  V30 END ATOM
M  V30 BEGIN BOND
M  V30 1 2 1 2
M  V30 2 1 2 3
M  V30 3 1 4 2 CFG=1
M  V30 4 1 4 5
M  V30 5 1 4 6
M  V30 6 1 5 7
M  V30 7 1 5 8 CFG=1
M  V30 8 1 6 9
M  V30 9 1 8 10
M  V30 10 1 9 11
M  V30 11 2 10 12
M  V30 12 1 10 13
M  V30 13 2 11 14
M  V30 14 1 11 15
M  V30 15 1 12 16
M  V30 16 2 13 17
M  V30 17 1 14 18
M  V30 18 2 15 19
M  V30 19 1 16 20
M  V30 20 2 16 21
M  V30 21 2 18 22
M  V30 22 1 20 23
M  V30 23 1 23 24
M  V30 24 1 24 25
M  V30 25 1 25 26
M  V30 26 2 25 27
M  V30 27 2 26 28
M  V30 28 1 27 29
M  V30 29 1 27 30
M  V30 30 1 28 31
M  V30 31 2 31 32
M  V30 32 1 31 33
M  V30 33 1 32 34
M  V30 34 2 33 35
M  V30 35 2 34 36
M  V30 36 1 7 9
M  V30 37 1 17 21
M  V30 38 1 19 22
M  V30 39 1 28 29
M  V30 40 1 35 36
M  V30 END BOND
M  V30 BEGIN COLLECTION
M  V30 MDLV30/STEABS ATOMS=(2 4 5)
M  V30 END COLLECTION
M  V30 END CTAB
M  END
>  <Molecule ChEMBL ID>
CHEMBL3398444

>  <Smiles>
Cc1oc(-c2ccccc2)nc1CCOc1cccc(C[C@@H]2CN(c3ccccc3)C[C@@H]2C(=O)O)c1

>  <IC50_nM>
80

>  <Assay Description>
Binding affinity to PPARgamma (unknown origin) using fluorescein-tagged dual PPARalpha/gamma activator by homogeneous fluorescence polarization binding assay

$$$$
CHEMBL386307
Actelion Java MolfileCreator 2.0

  0  0  0  0  0  0              0 V3000
M  V30 BEGIN CTAB
M  V30 COUNTS 36 39 0 0 0
M  V30 BEGIN ATOM
M  V30 1 S 3.8971 0.0 0.0 0
M  V30 2 O 4.6471 1.299 0.0 0
M  V30 3 O 3.1471 1.299 0.0 0
M  V30 4 N 2.598 -0.75 0.0 0
M  V30 5 C 5.1961 -0.75 0.0 0
M  V30 6 C 1.299 0.0 0.0 0
M  V30 7 C 5.1961 -2.25 0.0 0
M  V30 8 C 6.4951 0.0 0.0 0
M  V30 9 O 1.299 1.5 0.0 0
M  V30 10 C 0.0 -0.75 0.0 0
M  V30 11 C 6.4951 -3.0 0.0 0
M  V30 12 C 3.8971 -3.0 0.0 0
M  V30 13 C 7.7942 -0.75 0.0 0
M  V30 14 N -1.3703 -0.1398 0.0 0
M  V30 15 C -0.1567 -2.2417 0.0 0
M  V30 16 C 7.7942 -2.25 0.0 0
M  V30 17 F 4.6471 -4.299 0.0 0
M  V30 18 F 2.598 -3.75 0.0 0
M  V30 19 F 3.1471 -1.7009 0.0 0
M  V30 20 C -2.374 -1.2546 0.0 0
M  V30 21 C -1.6821 1.3273 0.0 0
M  V30 22 C -1.624 -2.5536 0.0 0
M  V30 23 C -3.874 -1.2546 0.0 0
M  V30 24 C -3.1087 1.7908 0.0 0
M  V30 25 C -2.374 -3.8526 0.0 0
M  V30 26 C -4.624 -2.5536 0.0 0
M  V30 27 C -3.4206 3.258 0.0 0
M  V30 28 C -4.2234 0.7871 0.0 0
M  V30 29 C -3.874 -3.8526 0.0 0
M  V30 30 C -4.8472 3.7216 0.0 0
M  V30 31 C -5.65 1.2506 0.0 0
M  V30 32 C -5.9619 2.7179 0.0 0
M  V30 33 C -5.159 5.1888 0.0 0
M  V30 34 F -6.6263 4.8769 0.0 0
M  V30 35 F -5.4709 6.656 0.0 0
M  V30 36 F -3.6918 5.5006 0.0 0
M  V30 END ATOM
M  V30 BEGIN BOND
M  V30 1 2 1 2
M  V30 2 2 1 3
M  V30 3 1 1 4
M  V30 4 1 1 5
M  V30 5 1 4 6
M  V30 6 2 5 7
M  V30 7 1 5 8
M  V30 8 2 6 9
M  V30 9 1 6 10
M  V30 10 1 7 11
M  V30 11 1 7 12
M  V30 12 2 8 13
M  V30 13 1 10 14
M  V30 14 2 10 15
M  V30 15 2 11 16
M  V30 16 1 12 17
M  V30 17 1 12 18
M  V30 18 1 12 19
M  V30 19 1 14 20
M  V30 20 1 14 21
M  V30 21 1 15 22
M  V30 22 1 20 23
M  V30 23 1 21 24
M  V30 24 1 22 25
M  V30 25 2 23 26
M  V30 26 2 24 27
M  V30 27 1 24 28
M  V30 28 2 25 29
M  V30 29 1 27 30
M  V30 30 2 28 31
M  V30 31 2 30 32
M  V30 32 1 30 33
M  V30 33 1 33 34
M  V30 34 1 33 35
M  V30 35 1 33 36
M  V30 36 1 13 16
M  V30 37 2 20 22
M  V30 38 1 26 29
M  V30 39 1 31 32
M  V30 END BOND
M  V30 END CTAB
M  END
>  <Molecule ChEMBL ID>
CHEMBL386307

>  <Smiles>
O=C(NS(=O)(=O)c1ccccc1C(F)(F)F)c1cc2ccccc2n1Cc1cccc(C(F)(F)F)c1

>  <IC50_nM>
80

>  <Assay Description>
Displacement of Fluormone from PPAR gamma

$$$$
CHEMBL3695912
Actelion Java MolfileCreator 2.0

  0  0  0  0  0  0              0 V3000
M  V30 BEGIN CTAB
M  V30 COUNTS 39 43 0 0 0
M  V30 BEGIN ATOM
M  V30 1 O 4.6457 5.2326 0.0 0
M  V30 2 C 5.3148 4.4895 0.0 0
M  V30 3 O 5.0058 3.5384 0.0 0
M  V30 4 C 6.293 4.6974 0.0 0
M  V30 5 C 6.9621 3.9542 0.0 0
M  V30 6 C 6.602 5.6484 0.0 0
M  V30 7 C 7.9402 4.1621 0.0 0
M  V30 8 C 7.5801 5.8563 0.0 0
M  V30 9 C 8.6094 3.419 0.0 0
M  V30 10 C 8.2493 5.1132 0.0 0
M  V30 11 C 8.3003 2.4679 0.0 0
M  V30 12 C 9.5875 3.6269 0.0 0
M  V30 13 C 8.9695 1.7248 0.0 0
M  V30 14 C 7.3222 2.26 0.0 0
M  V30 15 C 10.2566 2.8838 0.0 0
M  V30 16 C 9.9476 1.9327 0.0 0
M  V30 17 N 7.0132 1.309 0.0 0
M  V30 18 C 6.0621 0.9999 0.0 0
M  V30 19 C 7.601 0.5 0.0 0
M  V30 20 C 6.0621 0.0 0.0 0
M  V30 21 C 5.1961 1.4999 0.0 0
M  V30 22 C 7.0132 -0.309 0.0 0
M  V30 23 C 8.601 0.5 0.0 0
M  V30 24 C 5.1961 -0.5 0.0 0
M  V30 25 C 4.3301 0.9999 0.0 0
M  V30 26 C 7.3222 -1.26 0.0 0
M  V30 27 C 4.3301 0.0 0.0 0
M  V30 28 C 3.4641 -0.5 0.0 0
M  V30 29 O 3.4641 -1.5 0.0 0
M  V30 30 N 2.598 0.0 0.0 0
M  V30 31 C 1.732 -0.5 0.0 0 CFG=2
M  V30 32 C 1.732 -1.5 0.0 0
M  V30 33 C 0.866 0.0 0.0 0
M  V30 34 C 0.866 -1.9999 0.0 0
M  V30 35 C 2.598 -2.0 0.0 0
M  V30 36 C 0.0 -0.5 0.0 0
M  V30 37 C 0.866 -2.9999 0.0 0
M  V30 38 C 2.598 -3.0 0.0 0
M  V30 39 C 1.732 -3.5 0.0 0
M  V30 END ATOM
M  V30 BEGIN BOND
M  V30 1 2 1 2
M  V30 2 1 2 3
M  V30 3 1 2 4
M  V30 4 2 4 5
M  V30 5 1 4 6
M  V30 6 1 5 7
M  V30 7 2 6 8
M  V30 8 1 7 9
M  V30 9 2 7 10
M  V30 10 2 9 11
M  V30 11 1 9 12
M  V30 12 1 11 13
M  V30 13 1 11 14
M  V30 14 2 12 15
M  V30 15 2 13 16
M  V30 16 1 14 17
M  V30 17 1 17 18
M  V30 18 1 17 19
M  V30 19 2 18 20
M  V30 20 1 18 21
M  V30 21 2 19 22
M  V30 22 1 19 23
M  V30 23 1 20 24
M  V30 24 2 21 25
M  V30 25 1 22 26
M  V30 26 2 24 27
M  V30 27 1 27 28
M  V30 28 2 28 29
M  V30 29 1 28 30
M  V30 30 1 31 30 CFG=3
M  V30 31 1 31 32
M  V30 32 1 31 33
M  V30 33 2 32 34
M  V30 34 1 32 35
M  V30 35 1 33 36
M  V30 36 1 34 37
M  V30 37 2 35 38
M  V30 38 2 37 39
M  V30 39 1 8 10
M  V30 40 1 15 16
M  V30 41 1 20 22
M  V30 42 1 25 27
M  V30 43 1 38 39
M  V30 END BOND
M  V30 BEGIN COLLECTION
M  V30 MDLV30/STEABS ATOMS=(1 31)
M  V30 END COLLECTION
M  V30 END CTAB
M  END
>  <Molecule ChEMBL ID>
CHEMBL3695912

>  <Smiles>
CC[C@H](NC(=O)c1ccc2c(c1)c(C)c(C)n2Cc1ccccc1-c1cccc(C(=O)O)c1)c1ccccc1

>  <IC50_nM>
80

>  <Assay Description>
Lanthascreen Competitive Binding Assay: The assay was performed according to manufacturer protocol. A mixture of nM GST-PPARG-LBD, 5 nM Tb-GST-antibody, 5 nM Fluormone Pan-PPAR Green, and serial dilutions of the experimental compound, beginning at 10 ׬M downwards, was added to wells of black 384-well low-volume plates (Greiner) to a total volume of 18 ׬L. All dilutions were made in TR-FRET assay buffer C. DMSO at 2% final concentration was used as a no-ligand control. Experiment was performed in triplicate, and incubated for 2 hours in the dark prior to assay read in Perkin Elmer ViewLux ultra HTS microplate reader. FRET signal was measured by excitation at 340 nm and emission at 520 nm for fluorescein and 490 nm for terbium. Fold change over DMSO was calculated using GraphPad Prism Software (La Jolla, Calif.) by calculating 520 nm/490 nm ratio. Graphs were plotted as fold change of FRET signal for compound treatment over DMSO-only control.

$$$$
CHEMBL2331784
Actelion Java MolfileCreator 2.0

  0  0  0  0  0  0              0 V3000
M  V30 BEGIN CTAB
M  V30 COUNTS 30 32 0 0 0
M  V30 BEGIN ATOM
M  V30 1 Cl 11.6913 1.5 0.0 0
M  V30 2 C 10.3923 2.25 0.0 0
M  V30 3 C 10.3923 3.75 0.0 0
M  V30 4 C 9.0932 1.5 0.0 0
M  V30 5 N 9.0932 4.5 0.0 0
M  V30 6 C 7.7942 2.25 0.0 0
M  V30 7 C 7.7942 3.75 0.0 0
M  V30 8 O 6.4951 1.5 0.0 0
M  V30 9 C 6.4951 0.0 0.0 0
M  V30 10 C 5.1961 -0.75 0.0 0
M  V30 11 C 7.7942 -0.75 0.0 0
M  V30 12 C 3.8971 0.0 0.0 0
M  V30 13 C 5.1961 -2.25 0.0 0
M  V30 14 C 7.7942 -2.25 0.0 0
M  V30 15 O 3.8971 1.5 0.0 0
M  V30 16 O 2.598 -0.75 0.0 0
M  V30 17 C 6.4951 -3.0 0.0 0
M  V30 18 C 1.299 0.0 0.0 0
M  V30 19 N 6.4951 -4.5 0.0 0
M  V30 20 C 0.0 -0.75 0.0 0
M  V30 21 S 5.1961 -5.25 0.0 0
M  V30 22 O 4.4461 -3.9509 0.0 0
M  V30 23 O 3.6961 -5.25 0.0 0
M  V30 24 C 5.1961 -6.75 0.0 0
M  V30 25 C 3.8971 -7.5 0.0 0
M  V30 26 C 6.4951 -7.5 0.0 0
M  V30 27 C 3.8971 -9.0 0.0 0
M  V30 28 C 6.4951 -9.0 0.0 0
M  V30 29 C 5.1961 -9.75 0.0 0
M  V30 30 Cl 5.1961 -11.25 0.0 0
M  V30 END ATOM
M  V30 BEGIN BOND
M  V30 1 1 1 2
M  V30 2 2 2 3
M  V30 3 1 2 4
M  V30 4 1 3 5
M  V30 5 2 4 6
M  V30 6 2 5 7
M  V30 7 1 6 8
M  V30 8 1 8 9
M  V30 9 2 9 10
M  V30 10 1 9 11
M  V30 11 1 10 12
M  V30 12 1 10 13
M  V30 13 2 11 14
M  V30 14 2 12 15
M  V30 15 1 12 16
M  V30 16 2 13 17
M  V30 17 1 16 18
M  V30 18 1 17 19
M  V30 19 1 18 20
M  V30 20 1 19 21
M  V30 21 2 21 22
M  V30 22 2 21 23
M  V30 23 1 21 24
M  V30 24 2 24 25
M  V30 25 1 24 26
M  V30 26 1 25 27
M  V30 27 2 26 28
M  V30 28 2 27 29
M  V30 29 1 29 30
M  V30 30 1 6 7
M  V30 31 1 14 17
M  V30 32 1 28 29
M  V30 END BOND
M  V30 END CTAB
M  END
>  <Molecule ChEMBL ID>
CHEMBL2331784

>  <Smiles>
CCOC(=O)c1cc(NS(=O)(=O)c2ccc(Cl)cc2)ccc1Oc1cncc(Cl)c1

>  <IC50_nM>
80

>  <Assay Description>
Displacement of [3H]-rosiglitazone from GST-tagged PPARgammaLBD (unknown origin) after 1 hr by scintillation proximity assay

$$$$
CHEMBL3695859
Actelion Java MolfileCreator 2.0

  0  0  0  0  0  0              0 V3000
M  V30 BEGIN CTAB
M  V30 COUNTS 38 42 0 0 0
M  V30 BEGIN ATOM
M  V30 1 Br 6.0621 -1.9999 0.0 0
M  V30 2 C 5.1961 -1.4999 0.0 0
M  V30 3 C 5.1961 -0.5 0.0 0
M  V30 4 C 4.3301 -1.9999 0.0 0
M  V30 5 C 4.3301 0.0 0.0 0
M  V30 6 C 3.4641 -1.5 0.0 0
M  V30 7 C 3.4641 -0.5 0.0 0
M  V30 8 C 2.598 0.0 0.0 0 CFG=1
M  V30 9 N 1.732 -0.5 0.0 0
M  V30 10 C 2.598 1.0 0.0 0
M  V30 11 C 0.866 0.0 0.0 0
M  V30 12 O 0.866 1.0 0.0 0
M  V30 13 C 0.0 -0.5 0.0 0
M  V30 14 C 0.0 -1.4999 0.0 0
M  V30 15 C -0.866 0.0 0.0 0
M  V30 16 C -0.866 -1.9999 0.0 0
M  V30 17 C -1.732 -0.4999 0.0 0
M  V30 18 C -1.732 -1.4999 0.0 0
M  V30 19 C -1.0739 -2.9781 0.0 0
M  V30 20 N -2.4751 -2.1691 0.0 0
M  V30 21 C -2.0684 -3.0826 0.0 0
M  V30 22 C -3.4533 -1.9612 0.0 0
M  V30 23 C -2.5684 -3.9487 0.0 0
M  V30 24 C -4.1224 -2.7043 0.0 0
M  V30 25 C -5.1006 -2.4964 0.0 0
M  V30 26 C -3.8134 -3.6554 0.0 0
M  V30 27 C -5.7697 -3.2395 0.0 0
M  V30 28 C -4.4825 -4.3985 0.0 0
M  V30 29 C -5.4607 -4.1906 0.0 0
M  V30 30 C -6.1298 -4.9337 0.0 0
M  V30 31 C -7.108 -4.7258 0.0 0
M  V30 32 C -5.8208 -5.8848 0.0 0
M  V30 33 C -7.417 -3.7748 0.0 0
M  V30 34 C -7.7771 -5.469 0.0 0
M  V30 35 C -6.4899 -6.6279 0.0 0
M  V30 36 O -6.7478 -3.0316 0.0 0
M  V30 37 O -8.3951 -3.5669 0.0 0
M  V30 38 C -7.4681 -6.42 0.0 0
M  V30 END ATOM
M  V30 BEGIN BOND
M  V30 1 1 1 2
M  V30 2 2 2 3
M  V30 3 1 2 4
M  V30 4 1 3 5
M  V30 5 2 4 6
M  V30 6 2 5 7
M  V30 7 1 7 8
M  V30 8 1 8 9
M  V30 9 1 8 10 CFG=1
M  V30 10 1 9 11
M  V30 11 2 11 12
M  V30 12 1 11 13
M  V30 13 2 13 14
M  V30 14 1 13 15
M  V30 15 1 14 16
M  V30 16 2 15 17
M  V30 17 2 16 18
M  V30 18 1 16 19
M  V30 19 1 18 20
M  V30 20 2 19 21
M  V30 21 1 20 22
M  V30 22 1 21 23
M  V30 23 1 22 24
M  V30 24 2 24 25
M  V30 25 1 24 26
M  V30 26 1 25 27
M  V30 27 2 26 28
M  V30 28 2 27 29
M  V30 29 1 29 30
M  V30 30 2 30 31
M  V30 31 1 30 32
M  V30 32 1 31 33
M  V30 33 1 31 34
M  V30 34 2 32 35
M  V30 35 2 33 36
M  V30 36 1 33 37
M  V30 37 2 34 38
M  V30 38 1 6 7
M  V30 39 1 17 18
M  V30 40 1 20 21
M  V30 41 1 28 29
M  V30 42 1 35 38
M  V30 END BOND
M  V30 BEGIN COLLECTION
M  V30 MDLV30/STEABS ATOMS=(1 8)
M  V30 END COLLECTION
M  V30 END CTAB
M  END
>  <Molecule ChEMBL ID>
CHEMBL3695859

>  <Smiles>
Cc1cc2cc(C(=O)N[C@@H](C)c3ccc(Br)cc3)ccc2n1Cc1ccc(-c2ccccc2C(=O)O)cc1

>  <IC50_nM>
80

>  <Assay Description>
Lanthascreen Competitive Binding Assay: The assay was performed according to manufacturer protocol. A mixture of nM GST-PPARG-LBD, 5 nM Tb-GST-antibody, 5 nM Fluormone Pan-PPAR Green, and serial dilutions of the experimental compound, beginning at 10 ׬M downwards, was added to wells of black 384-well low-volume plates (Greiner) to a total volume of 18 ׬L. All dilutions were made in TR-FRET assay buffer C. DMSO at 2% final concentration was used as a no-ligand control. Experiment was performed in triplicate, and incubated for 2 hours in the dark prior to assay read in Perkin Elmer ViewLux ultra HTS microplate reader. FRET signal was measured by excitation at 340 nm and emission at 520 nm for fluorescein and 490 nm for terbium. Fold change over DMSO was calculated using GraphPad Prism Software (La Jolla, Calif.) by calculating 520 nm/490 nm ratio. Graphs were plotted as fold change of FRET signal for compound treatment over DMSO-only control.

$$$$
CHEMBL447538
Actelion Java MolfileCreator 2.0

  0  0  0  0  0  0              0 V3000
M  V30 BEGIN CTAB
M  V30 COUNTS 32 35 0 0 0
M  V30 BEGIN ATOM
M  V30 1 Cl 9.0619 -1.0978 0.0 0
M  V30 2 C 7.5701 -1.2546 0.0 0
M  V30 3 S 6.5664 -0.1398 0.0 0
M  V30 4 C 6.8201 -2.5536 0.0 0
M  V30 5 C 5.1961 -0.75 0.0 0
M  V30 6 C 5.3529 -2.2417 0.0 0
M  V30 7 S 3.8971 0.0 0.0 0
M  V30 8 O 4.6471 1.299 0.0 0
M  V30 9 O 3.1471 1.299 0.0 0
M  V30 10 N 2.598 -0.75 0.0 0
M  V30 11 C 1.299 0.0 0.0 0
M  V30 12 O 1.299 1.5 0.0 0
M  V30 13 C 0.0 -0.75 0.0 0
M  V30 14 N -1.3703 -0.1398 0.0 0
M  V30 15 C -0.1567 -2.2417 0.0 0
M  V30 16 C -2.374 -1.2546 0.0 0
M  V30 17 C -1.6821 1.3273 0.0 0
M  V30 18 C -1.624 -2.5536 0.0 0
M  V30 19 C -3.874 -1.2546 0.0 0
M  V30 20 C -3.1087 1.7908 0.0 0
M  V30 21 C -2.374 -3.8526 0.0 0
M  V30 22 C -4.624 -2.5536 0.0 0
M  V30 23 C -3.4206 3.258 0.0 0
M  V30 24 C -4.2234 0.7871 0.0 0
M  V30 25 C -3.874 -3.8526 0.0 0
M  V30 26 C -4.8472 3.7216 0.0 0
M  V30 27 C -5.65 1.2506 0.0 0
M  V30 28 C -5.9619 2.7179 0.0 0
M  V30 29 C -5.159 5.1888 0.0 0
M  V30 30 F -6.6263 4.8769 0.0 0
M  V30 31 F -5.4709 6.656 0.0 0
M  V30 32 F -3.6918 5.5006 0.0 0
M  V30 END ATOM
M  V30 BEGIN BOND
M  V30 1 1 1 2
M  V30 2 1 2 3
M  V30 3 2 2 4
M  V30 4 1 3 5
M  V30 5 1 4 6
M  V30 6 1 5 7
M  V30 7 2 7 8
M  V30 8 2 7 9
M  V30 9 1 7 10
M  V30 10 1 10 11
M  V30 11 2 11 12
M  V30 12 1 11 13
M  V30 13 1 13 14
M  V30 14 2 13 15
M  V30 15 1 14 16
M  V30 16 1 14 17
M  V30 17 1 15 18
M  V30 18 1 16 19
M  V30 19 1 17 20
M  V30 20 1 18 21
M  V30 21 2 19 22
M  V30 22 2 20 23
M  V30 23 1 20 24
M  V30 24 2 21 25
M  V30 25 1 23 26
M  V30 26 2 24 27
M  V30 27 2 26 28
M  V30 28 1 26 29
M  V30 29 1 29 30
M  V30 30 1 29 31
M  V30 31 1 29 32
M  V30 32 2 5 6
M  V30 33 2 16 18
M  V30 34 1 22 25
M  V30 35 1 27 28
M  V30 END BOND
M  V30 END CTAB
M  END
>  <Molecule ChEMBL ID>
CHEMBL447538

>  <Smiles>
O=C(NS(=O)(=O)c1ccc(Cl)s1)c1cc2ccccc2n1Cc1cccc(C(F)(F)F)c1

>  <IC50_nM>
80

>  <Assay Description>
Displacement of Fluormone from PPAR gamma

$$$$
CHEMBL3734773
Actelion Java MolfileCreator 2.0

  0  0  0  0  0  0              0 V3000
M  V30 BEGIN CTAB
M  V30 COUNTS 43 47 0 0 0
M  V30 BEGIN ATOM
M  V30 1 O 11.1837 5.7369 0.0 0
M  V30 2 C 10.8747 4.7859 0.0 0
M  V30 3 O 9.8965 4.578 0.0 0
M  V30 4 C 11.5438 4.0427 0.0 0
M  V30 5 C 11.2348 3.0917 0.0 0
M  V30 6 C 12.522 4.2506 0.0 0
M  V30 7 C 10.2566 2.8838 0.0 0
M  V30 8 C 11.9039 2.3485 0.0 0
M  V30 9 C 13.1911 3.5075 0.0 0
M  V30 10 C 9.5875 3.6269 0.0 0
M  V30 11 C 9.9476 1.9327 0.0 0
M  V30 12 C 12.8821 2.5564 0.0 0
M  V30 13 C 8.6094 3.419 0.0 0
M  V30 14 C 8.9695 1.7248 0.0 0
M  V30 15 C 8.3003 2.4679 0.0 0
M  V30 16 C 7.3222 2.26 0.0 0
M  V30 17 N 7.0132 1.309 0.0 0
M  V30 18 C 6.0621 0.9999 0.0 0
M  V30 19 C 7.601 0.5 0.0 0
M  V30 20 C 6.0621 0.0 0.0 0
M  V30 21 C 5.1961 1.4999 0.0 0
M  V30 22 C 7.0132 -0.309 0.0 0
M  V30 23 C 8.601 0.5 0.0 0
M  V30 24 C 5.1961 -0.5 0.0 0
M  V30 25 C 4.3301 0.9999 0.0 0
M  V30 26 C 7.3222 -1.26 0.0 0
M  V30 27 C 4.3301 0.0 0.0 0
M  V30 28 C 3.4641 -0.5 0.0 0
M  V30 29 O 3.4641 -1.5 0.0 0
M  V30 30 N 2.598 0.0 0.0 0
M  V30 31 C 1.732 -0.5 0.0 0 CFG=2
M  V30 32 C 1.732 -1.5 0.0 0
M  V30 33 C 0.866 0.0 0.0 0
M  V30 34 C 0.866 -2.0 0.0 0
M  V30 35 C 2.598 -1.9999 0.0 0
M  V30 36 C 0.866 1.0 0.0 0
M  V30 37 C 0.0 -0.5 0.0 0
M  V30 38 C 0.866 -3.0 0.0 0
M  V30 39 C 2.598 -3.0 0.0 0
M  V30 40 C 1.732 -3.5 0.0 0
M  V30 41 C 0.0 -3.5 0.0 0
M  V30 42 C -0.866 -3.0 0.0 0
M  V30 43 C 0.0 -4.5 0.0 0
M  V30 END ATOM
M  V30 BEGIN BOND
M  V30 1 2 1 2
M  V30 2 1 2 3
M  V30 3 1 2 4
M  V30 4 2 4 5
M  V30 5 1 4 6
M  V30 6 1 5 7
M  V30 7 1 5 8
M  V30 8 2 6 9
M  V30 9 2 7 10
M  V30 10 1 7 11
M  V30 11 2 8 12
M  V30 12 1 10 13
M  V30 13 2 11 14
M  V30 14 2 13 15
M  V30 15 1 15 16
M  V30 16 1 16 17
M  V30 17 1 17 18
M  V30 18 1 17 19
M  V30 19 2 18 20
M  V30 20 1 18 21
M  V30 21 2 19 22
M  V30 22 1 19 23
M  V30 23 1 20 24
M  V30 24 2 21 25
M  V30 25 1 22 26
M  V30 26 2 24 27
M  V30 27 1 27 28
M  V30 28 2 28 29
M  V30 29 1 28 30
M  V30 30 1 31 30 CFG=3
M  V30 31 1 31 32
M  V30 32 1 31 33
M  V30 33 2 32 34
M  V30 34 1 32 35
M  V30 35 1 33 36
M  V30 36 1 33 37
M  V30 37 1 34 38
M  V30 38 2 35 39
M  V30 39 2 38 40
M  V30 40 1 38 41
M  V30 41 1 41 42
M  V30 42 1 41 43
M  V30 43 1 9 12
M  V30 44 1 14 15
M  V30 45 1 20 22
M  V30 46 1 25 27
M  V30 47 1 39 40
M  V30 END BOND
M  V30 BEGIN COLLECTION
M  V30 MDLV30/STEABS ATOMS=(1 31)
M  V30 END COLLECTION
M  V30 END CTAB
M  END
>  <Molecule ChEMBL ID>
CHEMBL3734773

>  <Smiles>
Cc1c(C)n(Cc2ccc(-c3ccccc3C(=O)O)cc2)c2ccc(C(=O)N[C@H](c3cccc(C(C)C)c3)C(C)C)cc12

>  <IC50_nM>
80

>  <Assay Description>
Binding affinity to GST-tagged PPAR-gamma-LBD (unknown origin) after 2 hrs by Lantha screen assay using fluormone Pan-PPAR green probe

$$$$
CHEMBL3348830
Actelion Java MolfileCreator 2.0

  0  0  0  0  0  0              0 V3000
M  V30 BEGIN CTAB
M  V30 COUNTS 41 45 0 0 0
M  V30 BEGIN ATOM
M  V30 1 O 6.0621 -3.0 0.0 0
M  V30 2 N 6.0621 -1.9999 0.0 0 CHG=1
M  V30 3 O 6.9282 -1.5 0.0 0 CHG=-1
M  V30 4 C 5.1961 -1.4999 0.0 0
M  V30 5 C 5.1961 -0.5 0.0 0
M  V30 6 C 4.3301 -1.9999 0.0 0
M  V30 7 C 4.3301 0.0 0.0 0
M  V30 8 C 3.4641 -1.5 0.0 0
M  V30 9 C 3.4641 -0.5 0.0 0
M  V30 10 C 2.598 0.0 0.0 0 CFG=1
M  V30 11 N 1.732 -0.5 0.0 0
M  V30 12 C 2.598 1.0 0.0 0
M  V30 13 C 0.866 0.0 0.0 0
M  V30 14 O 0.866 1.0 0.0 0
M  V30 15 C 0.0 -0.5 0.0 0
M  V30 16 C 0.0 -1.4999 0.0 0
M  V30 17 C -0.866 0.0 0.0 0
M  V30 18 C -0.866 -1.9999 0.0 0
M  V30 19 C -1.732 -0.4999 0.0 0
M  V30 20 C -1.732 -1.4999 0.0 0
M  V30 21 C -1.0739 -2.9781 0.0 0
M  V30 22 N -2.4751 -2.1691 0.0 0
M  V30 23 C -2.0684 -3.0826 0.0 0
M  V30 24 C -0.4048 -3.7212 0.0 0
M  V30 25 C -3.4533 -1.9612 0.0 0
M  V30 26 C -2.5684 -3.9487 0.0 0
M  V30 27 C -4.1224 -2.7043 0.0 0
M  V30 28 C -5.1006 -2.4964 0.0 0
M  V30 29 C -3.8134 -3.6554 0.0 0
M  V30 30 C -5.7697 -3.2395 0.0 0
M  V30 31 C -4.4825 -4.3985 0.0 0
M  V30 32 C -5.4607 -4.1906 0.0 0
M  V30 33 C -6.1298 -4.9337 0.0 0
M  V30 34 C -7.108 -4.7258 0.0 0
M  V30 35 C -5.8208 -5.8848 0.0 0
M  V30 36 C -7.417 -3.7748 0.0 0
M  V30 37 C -7.7771 -5.469 0.0 0
M  V30 38 C -6.4899 -6.6279 0.0 0
M  V30 39 O -6.7478 -3.0316 0.0 0
M  V30 40 O -8.3951 -3.5669 0.0 0
M  V30 41 C -7.4681 -6.42 0.0 0
M  V30 END ATOM
M  V30 BEGIN BOND
M  V30 1 2 1 2
M  V30 2 1 2 3
M  V30 3 1 2 4
M  V30 4 2 4 5
M  V30 5 1 4 6
M  V30 6 1 5 7
M  V30 7 2 6 8
M  V30 8 2 7 9
M  V30 9 1 9 10
M  V30 10 1 10 11
M  V30 11 1 10 12 CFG=1
M  V30 12 1 11 13
M  V30 13 2 13 14
M  V30 14 1 13 15
M  V30 15 2 15 16
M  V30 16 1 15 17
M  V30 17 1 16 18
M  V30 18 2 17 19
M  V30 19 2 18 20
M  V30 20 1 18 21
M  V30 21 1 20 22
M  V30 22 2 21 23
M  V30 23 1 21 24
M  V30 24 1 22 25
M  V30 25 1 23 26
M  V30 26 1 25 27
M  V30 27 2 27 28
M  V30 28 1 27 29
M  V30 29 1 28 30
M  V30 30 2 29 31
M  V30 31 2 30 32
M  V30 32 1 32 33
M  V30 33 2 33 34
M  V30 34 1 33 35
M  V30 35 1 34 36
M  V30 36 1 34 37
M  V30 37 2 35 38
M  V30 38 2 36 39
M  V30 39 1 36 40
M  V30 40 2 37 41
M  V30 41 1 8 9
M  V30 42 1 19 20
M  V30 43 1 22 23
M  V30 44 1 31 32
M  V30 45 1 38 41
M  V30 END BOND
M  V30 BEGIN COLLECTION
M  V30 MDLV30/STEABS ATOMS=(1 10)
M  V30 END COLLECTION
M  V30 END CTAB
M  END
>  <Molecule ChEMBL ID>
CHEMBL3348830

>  <Smiles>
Cc1c(C)n(Cc2ccc(-c3ccccc3C(=O)O)cc2)c2ccc(C(=O)N[C@@H](C)c3ccc([N+](=O)[O-])cc3)cc12

>  <IC50_nM>
80

>  <Assay Description>
Binding affinity to GST-tagged PPAR-gamma-LBD (unknown origin) after 2 hrs by Lantha screen assay using fluormone Pan-PPAR green probe

$$$$
CHEMBL3695913
Actelion Java MolfileCreator 2.0

  0  0  0  0  0  0              0 V3000
M  V30 BEGIN CTAB
M  V30 COUNTS 39 43 0 0 0
M  V30 BEGIN ATOM
M  V30 1 O 6.2419 7.3426 0.0 0
M  V30 2 C 5.9328 6.3916 0.0 0
M  V30 3 O 4.9547 6.1837 0.0 0
M  V30 4 C 6.602 5.6484 0.0 0
M  V30 5 C 6.293 4.6974 0.0 0
M  V30 6 C 7.5801 5.8563 0.0 0
M  V30 7 C 6.9621 3.9542 0.0 0
M  V30 8 C 8.2493 5.1132 0.0 0
M  V30 9 C 7.9402 4.1621 0.0 0
M  V30 10 C 8.6094 3.419 0.0 0
M  V30 11 C 8.3003 2.4679 0.0 0
M  V30 12 C 9.5875 3.6269 0.0 0
M  V30 13 C 8.9695 1.7248 0.0 0
M  V30 14 C 7.3222 2.26 0.0 0
M  V30 15 C 10.2566 2.8838 0.0 0
M  V30 16 C 9.9476 1.9327 0.0 0
M  V30 17 N 7.0132 1.309 0.0 0
M  V30 18 C 6.0621 0.9999 0.0 0
M  V30 19 C 7.601 0.5 0.0 0
M  V30 20 C 6.0621 0.0 0.0 0
M  V30 21 C 5.1961 1.4999 0.0 0
M  V30 22 C 7.0132 -0.309 0.0 0
M  V30 23 C 8.601 0.5 0.0 0
M  V30 24 C 5.1961 -0.5 0.0 0
M  V30 25 C 4.3301 0.9999 0.0 0
M  V30 26 C 7.3222 -1.26 0.0 0
M  V30 27 C 4.3301 0.0 0.0 0
M  V30 28 C 3.4641 -0.5 0.0 0
M  V30 29 O 3.4641 -1.5 0.0 0
M  V30 30 N 2.598 0.0 0.0 0
M  V30 31 C 1.732 -0.5 0.0 0 CFG=1
M  V30 32 C 1.732 -1.5 0.0 0
M  V30 33 C 0.866 0.0 0.0 0
M  V30 34 C 0.866 -1.9999 0.0 0
M  V30 35 C 2.598 -2.0 0.0 0
M  V30 36 C 0.0 -0.5 0.0 0
M  V30 37 C 0.866 -2.9999 0.0 0
M  V30 38 C 2.598 -3.0 0.0 0
M  V30 39 C 1.732 -3.5 0.0 0
M  V30 END ATOM
M  V30 BEGIN BOND
M  V30 1 2 1 2
M  V30 2 1 2 3
M  V30 3 1 2 4
M  V30 4 2 4 5
M  V30 5 1 4 6
M  V30 6 1 5 7
M  V30 7 2 6 8
M  V30 8 2 7 9
M  V30 9 1 9 10
M  V30 10 2 10 11
M  V30 11 1 10 12
M  V30 12 1 11 13
M  V30 13 1 11 14
M  V30 14 2 12 15
M  V30 15 2 13 16
M  V30 16 1 14 17
M  V30 17 1 17 18
M  V30 18 1 17 19
M  V30 19 2 18 20
M  V30 20 1 18 21
M  V30 21 2 19 22
M  V30 22 1 19 23
M  V30 23 1 20 24
M  V30 24 2 21 25
M  V30 25 1 22 26
M  V30 26 2 24 27
M  V30 27 1 27 28
M  V30 28 2 28 29
M  V30 29 1 28 30
M  V30 30 1 31 30 CFG=1
M  V30 31 1 31 32
M  V30 32 1 31 33
M  V30 33 2 32 34
M  V30 34 1 32 35
M  V30 35 1 33 36
M  V30 36 1 34 37
M  V30 37 2 35 38
M  V30 38 2 37 39
M  V30 39 1 8 9
M  V30 40 1 15 16
M  V30 41 1 20 22
M  V30 42 1 25 27
M  V30 43 1 38 39
M  V30 END BOND
M  V30 BEGIN COLLECTION
M  V30 MDLV30/STEABS ATOMS=(1 31)
M  V30 END COLLECTION
M  V30 END CTAB
M  END
>  <Molecule ChEMBL ID>
CHEMBL3695913

>  <Smiles>
CC[C@@H](NC(=O)c1ccc2c(c1)c(C)c(C)n2Cc1ccccc1-c1ccc(C(=O)O)cc1)c1ccccc1

>  <IC50_nM>
80

>  <Assay Description>
Lanthascreen Competitive Binding Assay: The assay was performed according to manufacturer protocol. A mixture of nM GST-PPARG-LBD, 5 nM Tb-GST-antibody, 5 nM Fluormone Pan-PPAR Green, and serial dilutions of the experimental compound, beginning at 10 ׬M downwards, was added to wells of black 384-well low-volume plates (Greiner) to a total volume of 18 ׬L. All dilutions were made in TR-FRET assay buffer C. DMSO at 2% final concentration was used as a no-ligand control. Experiment was performed in triplicate, and incubated for 2 hours in the dark prior to assay read in Perkin Elmer ViewLux ultra HTS microplate reader. FRET signal was measured by excitation at 340 nm and emission at 520 nm for fluorescein and 490 nm for terbium. Fold change over DMSO was calculated using GraphPad Prism Software (La Jolla, Calif.) by calculating 520 nm/490 nm ratio. Graphs were plotted as fold change of FRET signal for compound treatment over DMSO-only control.

$$$$
CHEMBL3398443
Actelion Java MolfileCreator 2.0

  0  0  0  0  0  0              0 V3000
M  V30 BEGIN CTAB
M  V30 COUNTS 39 43 0 0 0
M  V30 BEGIN ATOM
M  V30 1 O 3.9798 -5.2433 0.0 0
M  V30 2 C 4.9743 -5.3478 0.0 0
M  V30 3 O 5.3811 -6.2614 0.0 0
M  V30 4 N 5.5621 -4.5388 0.0 0
M  V30 5 C 6.3756 -6.3659 0.0 0
M  V30 6 C 6.5621 -4.5388 0.0 0
M  V30 7 C 5.2531 -3.5877 0.0 0
M  V30 8 C 6.7823 -7.2794 0.0 0
M  V30 9 C 6.9634 -5.5569 0.0 0
M  V30 10 C 6.8711 -3.5877 0.0 0 CFG=1
M  V30 11 C 6.0621 -3.0 0.0 0 CFG=2
M  V30 12 C 7.7769 -7.384 0.0 0
M  V30 13 C 7.9579 -5.6614 0.0 0
M  V30 14 C 7.8222 -3.2787 0.0 0
M  V30 15 C 6.0621 -2.0 0.0 0
M  V30 16 C 8.3646 -6.5749 0.0 0
M  V30 17 O 8.5653 -3.9478 0.0 0
M  V30 18 O 8.0301 -2.3006 0.0 0
M  V30 19 C 5.1961 -1.4999 0.0 0
M  V30 20 C 5.1961 -0.5 0.0 0
M  V30 21 C 4.3301 -1.9999 0.0 0
M  V30 22 C 4.3301 0.0 0.0 0
M  V30 23 C 3.4641 -1.5 0.0 0
M  V30 24 C 3.4641 -0.5 0.0 0
M  V30 25 O 2.598 0.0 0.0 0
M  V30 26 C 1.732 -0.5 0.0 0
M  V30 27 C 0.866 0.0 0.0 0
M  V30 28 C 0.0 -0.5 0.0 0
M  V30 29 N -0.9135 -0.0932 0.0 0
M  V30 30 C -0.1045 -1.4945 0.0 0
M  V30 31 C -1.5826 -0.8364 0.0 0
M  V30 32 O -1.0826 -1.7024 0.0 0
M  V30 33 C 0.6386 -2.1636 0.0 0
M  V30 34 C -2.5771 -0.7318 0.0 0
M  V30 35 C -2.9839 0.1816 0.0 0
M  V30 36 C -3.1649 -1.5408 0.0 0
M  V30 37 C -3.9784 0.2861 0.0 0
M  V30 38 C -4.1595 -1.4363 0.0 0
M  V30 39 C -4.5662 -0.5228 0.0 0
M  V30 END ATOM
M  V30 BEGIN BOND
M  V30 1 2 1 2
M  V30 2 1 2 3
M  V30 3 1 2 4
M  V30 4 1 3 5
M  V30 5 1 4 6
M  V30 6 1 4 7
M  V30 7 2 5 8
M  V30 8 1 5 9
M  V30 9 1 6 10
M  V30 10 1 7 11
M  V30 11 1 8 12
M  V30 12 2 9 13
M  V30 13 1 10 14 CFG=1
M  V30 14 1 11 15 CFG=1
M  V30 15 2 12 16
M  V30 16 2 14 17
M  V30 17 1 14 18
M  V30 18 1 15 19
M  V30 19 2 19 20
M  V30 20 1 19 21
M  V30 21 1 20 22
M  V30 22 2 21 23
M  V30 23 2 22 24
M  V30 24 1 24 25
M  V30 25 1 25 26
M  V30 26 1 26 27
M  V30 27 1 27 28
M  V30 28 1 28 29
M  V30 29 2 28 30
M  V30 30 2 29 31
M  V30 31 1 30 32
M  V30 32 1 30 33
M  V30 33 1 31 34
M  V30 34 2 34 35
M  V30 35 1 34 36
M  V30 36 1 35 37
M  V30 37 2 36 38
M  V30 38 2 37 39
M  V30 39 1 10 11
M  V30 40 1 13 16
M  V30 41 1 23 24
M  V30 42 1 31 32
M  V30 43 1 38 39
M  V30 END BOND
M  V30 BEGIN COLLECTION
M  V30 MDLV30/STEABS ATOMS=(2 10 11)
M  V30 END COLLECTION
M  V30 END CTAB
M  END
>  <Molecule ChEMBL ID>
CHEMBL3398443

>  <Smiles>
Cc1oc(-c2ccccc2)nc1CCOc1ccc(C[C@@H]2CN(C(=O)Oc3ccccc3)C[C@@H]2C(=O)O)cc1

>  <IC50_nM>
80

>  <Assay Description>
Binding affinity to PPARgamma (unknown origin) using fluorescein-tagged dual PPARalpha/gamma activator by homogeneous fluorescence polarization binding assay

$$$$
CHEMBL3348830
Actelion Java MolfileCreator 2.0

  0  0  0  0  0  0              0 V3000
M  V30 BEGIN CTAB
M  V30 COUNTS 41 45 0 0 0
M  V30 BEGIN ATOM
M  V30 1 O 6.0621 -3.0 0.0 0
M  V30 2 N 6.0621 -1.9999 0.0 0 CHG=1
M  V30 3 O 6.9282 -1.5 0.0 0 CHG=-1
M  V30 4 C 5.1961 -1.4999 0.0 0
M  V30 5 C 5.1961 -0.5 0.0 0
M  V30 6 C 4.3301 -1.9999 0.0 0
M  V30 7 C 4.3301 0.0 0.0 0
M  V30 8 C 3.4641 -1.5 0.0 0
M  V30 9 C 3.4641 -0.5 0.0 0
M  V30 10 C 2.598 0.0 0.0 0 CFG=1
M  V30 11 N 1.732 -0.5 0.0 0
M  V30 12 C 2.598 1.0 0.0 0
M  V30 13 C 0.866 0.0 0.0 0
M  V30 14 O 0.866 1.0 0.0 0
M  V30 15 C 0.0 -0.5 0.0 0
M  V30 16 C 0.0 -1.4999 0.0 0
M  V30 17 C -0.866 0.0 0.0 0
M  V30 18 C -0.866 -1.9999 0.0 0
M  V30 19 C -1.732 -0.4999 0.0 0
M  V30 20 C -1.732 -1.4999 0.0 0
M  V30 21 C -1.0739 -2.9781 0.0 0
M  V30 22 N -2.4751 -2.1691 0.0 0
M  V30 23 C -2.0684 -3.0826 0.0 0
M  V30 24 C -0.4048 -3.7212 0.0 0
M  V30 25 C -3.4533 -1.9612 0.0 0
M  V30 26 C -2.5684 -3.9487 0.0 0
M  V30 27 C -4.1224 -2.7043 0.0 0
M  V30 28 C -5.1006 -2.4964 0.0 0
M  V30 29 C -3.8134 -3.6554 0.0 0
M  V30 30 C -5.7697 -3.2395 0.0 0
M  V30 31 C -4.4825 -4.3985 0.0 0
M  V30 32 C -5.4607 -4.1906 0.0 0
M  V30 33 C -6.1298 -4.9337 0.0 0
M  V30 34 C -7.108 -4.7258 0.0 0
M  V30 35 C -5.8208 -5.8848 0.0 0
M  V30 36 C -7.417 -3.7748 0.0 0
M  V30 37 C -7.7771 -5.469 0.0 0
M  V30 38 C -6.4899 -6.6279 0.0 0
M  V30 39 O -6.7478 -3.0316 0.0 0
M  V30 40 O -8.3951 -3.5669 0.0 0
M  V30 41 C -7.4681 -6.42 0.0 0
M  V30 END ATOM
M  V30 BEGIN BOND
M  V30 1 2 1 2
M  V30 2 1 2 3
M  V30 3 1 2 4
M  V30 4 2 4 5
M  V30 5 1 4 6
M  V30 6 1 5 7
M  V30 7 2 6 8
M  V30 8 2 7 9
M  V30 9 1 9 10
M  V30 10 1 10 11
M  V30 11 1 10 12 CFG=1
M  V30 12 1 11 13
M  V30 13 2 13 14
M  V30 14 1 13 15
M  V30 15 2 15 16
M  V30 16 1 15 17
M  V30 17 1 16 18
M  V30 18 2 17 19
M  V30 19 2 18 20
M  V30 20 1 18 21
M  V30 21 1 20 22
M  V30 22 2 21 23
M  V30 23 1 21 24
M  V30 24 1 22 25
M  V30 25 1 23 26
M  V30 26 1 25 27
M  V30 27 2 27 28
M  V30 28 1 27 29
M  V30 29 1 28 30
M  V30 30 2 29 31
M  V30 31 2 30 32
M  V30 32 1 32 33
M  V30 33 2 33 34
M  V30 34 1 33 35
M  V30 35 1 34 36
M  V30 36 1 34 37
M  V30 37 2 35 38
M  V30 38 2 36 39
M  V30 39 1 36 40
M  V30 40 2 37 41
M  V30 41 1 8 9
M  V30 42 1 19 20
M  V30 43 1 22 23
M  V30 44 1 31 32
M  V30 45 1 38 41
M  V30 END BOND
M  V30 BEGIN COLLECTION
M  V30 MDLV30/STEABS ATOMS=(1 10)
M  V30 END COLLECTION
M  V30 END CTAB
M  END
>  <Molecule ChEMBL ID>
CHEMBL3348830

>  <Smiles>
Cc1c(C)n(Cc2ccc(-c3ccccc3C(=O)O)cc2)c2ccc(C(=O)N[C@@H](C)c3ccc([N+](=O)[O-])cc3)cc12

>  <IC50_nM>
80

>  <Assay Description>
Lanthascreen Competitive Binding Assay: The assay was performed according to manufacturer protocol. A mixture of nM GST-PPARG-LBD, 5 nM Tb-GST-antibody, 5 nM Fluormone Pan-PPAR Green, and serial dilutions of the experimental compound, beginning at 10 ׬M downwards, was added to wells of black 384-well low-volume plates (Greiner) to a total volume of 18 ׬L. All dilutions were made in TR-FRET assay buffer C. DMSO at 2% final concentration was used as a no-ligand control. Experiment was performed in triplicate, and incubated for 2 hours in the dark prior to assay read in Perkin Elmer ViewLux ultra HTS microplate reader. FRET signal was measured by excitation at 340 nm and emission at 520 nm for fluorescein and 490 nm for terbium. Fold change over DMSO was calculated using GraphPad Prism Software (La Jolla, Calif.) by calculating 520 nm/490 nm ratio. Graphs were plotted as fold change of FRET signal for compound treatment over DMSO-only control.

$$$$
CHEMBL3398443
Actelion Java MolfileCreator 2.0

  0  0  0  0  0  0              0 V3000
M  V30 BEGIN CTAB
M  V30 COUNTS 39 43 0 0 0
M  V30 BEGIN ATOM
M  V30 1 O 3.9798 -5.2433 0.0 0
M  V30 2 C 4.9743 -5.3478 0.0 0
M  V30 3 O 5.3811 -6.2614 0.0 0
M  V30 4 N 5.5621 -4.5388 0.0 0
M  V30 5 C 6.3756 -6.3659 0.0 0
M  V30 6 C 6.5621 -4.5388 0.0 0
M  V30 7 C 5.2531 -3.5877 0.0 0
M  V30 8 C 6.7823 -7.2794 0.0 0
M  V30 9 C 6.9634 -5.5569 0.0 0
M  V30 10 C 6.8711 -3.5877 0.0 0 CFG=1
M  V30 11 C 6.0621 -3.0 0.0 0 CFG=2
M  V30 12 C 7.7769 -7.384 0.0 0
M  V30 13 C 7.9579 -5.6614 0.0 0
M  V30 14 C 7.8222 -3.2787 0.0 0
M  V30 15 C 6.0621 -2.0 0.0 0
M  V30 16 C 8.3646 -6.5749 0.0 0
M  V30 17 O 8.5653 -3.9478 0.0 0
M  V30 18 O 8.0301 -2.3006 0.0 0
M  V30 19 C 5.1961 -1.4999 0.0 0
M  V30 20 C 5.1961 -0.5 0.0 0
M  V30 21 C 4.3301 -1.9999 0.0 0
M  V30 22 C 4.3301 0.0 0.0 0
M  V30 23 C 3.4641 -1.5 0.0 0
M  V30 24 C 3.4641 -0.5 0.0 0
M  V30 25 O 2.598 0.0 0.0 0
M  V30 26 C 1.732 -0.5 0.0 0
M  V30 27 C 0.866 0.0 0.0 0
M  V30 28 C 0.0 -0.5 0.0 0
M  V30 29 N -0.9135 -0.0932 0.0 0
M  V30 30 C -0.1045 -1.4945 0.0 0
M  V30 31 C -1.5826 -0.8364 0.0 0
M  V30 32 O -1.0826 -1.7024 0.0 0
M  V30 33 C 0.6386 -2.1636 0.0 0
M  V30 34 C -2.5771 -0.7318 0.0 0
M  V30 35 C -2.9839 0.1816 0.0 0
M  V30 36 C -3.1649 -1.5408 0.0 0
M  V30 37 C -3.9784 0.2861 0.0 0
M  V30 38 C -4.1595 -1.4363 0.0 0
M  V30 39 C -4.5662 -0.5228 0.0 0
M  V30 END ATOM
M  V30 BEGIN BOND
M  V30 1 2 1 2
M  V30 2 1 2 3
M  V30 3 1 2 4
M  V30 4 1 3 5
M  V30 5 1 4 6
M  V30 6 1 4 7
M  V30 7 2 5 8
M  V30 8 1 5 9
M  V30 9 1 6 10
M  V30 10 1 7 11
M  V30 11 1 8 12
M  V30 12 2 9 13
M  V30 13 1 10 14 CFG=1
M  V30 14 1 11 15 CFG=1
M  V30 15 2 12 16
M  V30 16 2 14 17
M  V30 17 1 14 18
M  V30 18 1 15 19
M  V30 19 2 19 20
M  V30 20 1 19 21
M  V30 21 1 20 22
M  V30 22 2 21 23
M  V30 23 2 22 24
M  V30 24 1 24 25
M  V30 25 1 25 26
M  V30 26 1 26 27
M  V30 27 1 27 28
M  V30 28 1 28 29
M  V30 29 2 28 30
M  V30 30 2 29 31
M  V30 31 1 30 32
M  V30 32 1 30 33
M  V30 33 1 31 34
M  V30 34 2 34 35
M  V30 35 1 34 36
M  V30 36 1 35 37
M  V30 37 2 36 38
M  V30 38 2 37 39
M  V30 39 1 10 11
M  V30 40 1 13 16
M  V30 41 1 23 24
M  V30 42 1 31 32
M  V30 43 1 38 39
M  V30 END BOND
M  V30 BEGIN COLLECTION
M  V30 MDLV30/STEABS ATOMS=(2 10 11)
M  V30 END COLLECTION
M  V30 END CTAB
M  END
>  <Molecule ChEMBL ID>
CHEMBL3398443

>  <Smiles>
Cc1oc(-c2ccccc2)nc1CCOc1ccc(C[C@@H]2CN(C(=O)Oc3ccccc3)C[C@@H]2C(=O)O)cc1

>  <IC50_nM>
80

>  <Assay Description>
Binding affinity to PPARgamma (unknown origin) using fluorescein-tagged dual PPARalpha/gamma activator by homogeneous fluorescence polarization binding assay

$$$$
CHEMBL3695899
Actelion Java MolfileCreator 2.0

  0  0  0  0  0  0              0 V3000
M  V30 BEGIN CTAB
M  V30 COUNTS 41 45 0 0 0
M  V30 BEGIN ATOM
M  V30 1 O 9.0932 0.0 0.0 0
M  V30 2 C 7.7942 -0.75 0.0 0
M  V30 3 N 6.4951 0.0 0.0 0
M  V30 4 C 7.7942 -2.25 0.0 0
M  V30 5 C 5.1961 -0.75 0.0 0 CFG=2
M  V30 6 C 9.0932 -3.0 0.0 0
M  V30 7 C 6.4951 -2.9999 0.0 0
M  V30 8 C 3.8971 0.0 0.0 0
M  V30 9 C 5.1961 -2.25 0.0 0
M  V30 10 C 9.0932 -4.5 0.0 0
M  V30 11 C 6.4951 -4.4999 0.0 0
M  V30 12 C 2.598 -0.75 0.0 0
M  V30 13 C 3.8971 1.5 0.0 0
M  V30 14 C 3.8971 -3.0 0.0 0
M  V30 15 C 7.7942 -5.25 0.0 0
M  V30 16 C 10.2079 -5.5036 0.0 0
M  V30 17 C 1.299 0.0 0.0 0
M  V30 18 C 2.598 2.2499 0.0 0
M  V30 19 C 3.8971 -4.5 0.0 0
M  V30 20 N 8.106 -6.7172 0.0 0
M  V30 21 C 9.5978 -6.874 0.0 0
M  V30 22 C 11.6752 -5.1918 0.0 0
M  V30 23 C 1.299 1.4999 0.0 0
M  V30 24 C 0.0 -0.75 0.0 0
M  V30 25 C 2.598 -5.2499 0.0 0
M  V30 26 C 7.1024 -7.8319 0.0 0
M  V30 27 C 10.3478 -8.173 0.0 0
M  V30 28 C 0.0 -2.25 0.0 0
M  V30 29 C -1.299 0.0 0.0 0
M  V30 30 C 7.5659 -9.2585 0.0 0
M  V30 31 C 6.5622 -10.3732 0.0 0
M  V30 32 C 9.0331 -9.5703 0.0 0
M  V30 33 C 7.0257 -11.7998 0.0 0
M  V30 34 C 9.4966 -10.9969 0.0 0
M  V30 35 C 8.4929 -12.1116 0.0 0
M  V30 36 C 8.9565 -13.5382 0.0 0
M  V30 37 C 7.9528 -14.6529 0.0 0
M  V30 38 C 10.4237 -13.8501 0.0 0
M  V30 39 C 8.4163 -16.0795 0.0 0
M  V30 40 C 10.8872 -15.2767 0.0 0
M  V30 41 C 9.8835 -16.3914 0.0 0
M  V30 END ATOM
M  V30 BEGIN BOND
M  V30 1 2 1 2
M  V30 2 1 2 3
M  V30 3 1 2 4
M  V30 4 1 5 3 CFG=1
M  V30 5 2 4 6
M  V30 6 1 4 7
M  V30 7 1 5 8
M  V30 8 1 5 9
M  V30 9 1 6 10
M  V30 10 2 7 11
M  V30 11 2 8 12
M  V30 12 1 8 13
M  V30 13 1 9 14
M  V30 14 2 10 15
M  V30 15 1 10 16
M  V30 16 1 12 17
M  V30 17 2 13 18
M  V30 18 1 14 19
M  V30 19 1 15 20
M  V30 20 2 16 21
M  V30 21 1 16 22
M  V30 22 2 17 23
M  V30 23 1 17 24
M  V30 24 1 19 25
M  V30 25 1 20 26
M  V30 26 1 21 27
M  V30 27 1 24 28
M  V30 28 1 24 29
M  V30 29 1 26 30
M  V30 30 2 30 31
M  V30 31 1 30 32
M  V30 32 1 31 33
M  V30 33 2 32 34
M  V30 34 2 33 35
M  V30 35 1 35 36
M  V30 36 2 36 37
M  V30 37 1 36 38
M  V30 38 1 37 39
M  V30 39 2 38 40
M  V30 40 2 39 41
M  V30 41 1 11 15
M  V30 42 1 18 23
M  V30 43 1 20 21
M  V30 44 1 34 35
M  V30 45 1 40 41
M  V30 END BOND
M  V30 BEGIN COLLECTION
M  V30 MDLV30/STEABS ATOMS=(1 5)
M  V30 END COLLECTION
M  V30 END CTAB
M  END
>  <Molecule ChEMBL ID>
CHEMBL3695899

>  <Smiles>
CCCC[C@H](NC(=O)c1ccc2c(c1)c(C)c(C)n2Cc1ccc(-c2ccccc2)cc1)c1cccc(C(C)C)c1

>  <IC50_nM>
81

>  <Assay Description>
Lanthascreen Competitive Binding Assay: The assay was performed according to manufacturer protocol. A mixture of nM GST-PPARG-LBD, 5 nM Tb-GST-antibody, 5 nM Fluormone Pan-PPAR Green, and serial dilutions of the experimental compound, beginning at 10 ׬M downwards, was added to wells of black 384-well low-volume plates (Greiner) to a total volume of 18 ׬L. All dilutions were made in TR-FRET assay buffer C. DMSO at 2% final concentration was used as a no-ligand control. Experiment was performed in triplicate, and incubated for 2 hours in the dark prior to assay read in Perkin Elmer ViewLux ultra HTS microplate reader. FRET signal was measured by excitation at 340 nm and emission at 520 nm for fluorescein and 490 nm for terbium. Fold change over DMSO was calculated using GraphPad Prism Software (La Jolla, Calif.) by calculating 520 nm/490 nm ratio. Graphs were plotted as fold change of FRET signal for compound treatment over DMSO-only control.

$$$$
CHEMBL3736501
Actelion Java MolfileCreator 2.0

  0  0  0  0  0  0              0 V3000
M  V30 BEGIN CTAB
M  V30 COUNTS 44 48 0 0 0
M  V30 BEGIN ATOM
M  V30 1 O 19.3736 8.6054 0.0 0
M  V30 2 C 18.9101 7.1788 0.0 0
M  V30 3 O 17.4429 6.867 0.0 0
M  V30 4 C 19.9138 6.0641 0.0 0
M  V30 5 C 19.4503 4.6375 0.0 0
M  V30 6 C 21.381 6.376 0.0 0
M  V30 7 C 17.9831 4.3257 0.0 0
M  V30 8 C 20.454 3.5228 0.0 0
M  V30 9 C 22.3847 5.2613 0.0 0
M  V30 10 C 16.9794 5.4404 0.0 0
M  V30 11 C 17.5195 2.8991 0.0 0
M  V30 12 C 21.9212 3.8347 0.0 0
M  V30 13 C 15.5122 5.1285 0.0 0
M  V30 14 C 16.0523 2.5872 0.0 0
M  V30 15 C 15.0486 3.7019 0.0 0
M  V30 16 C 13.5814 3.3901 0.0 0
M  V30 17 N 13.1179 1.9635 0.0 0
M  V30 18 C 11.6913 1.4999 0.0 0
M  V30 19 C 13.9996 0.75 0.0 0
M  V30 20 C 11.6913 0.0 0.0 0
M  V30 21 C 10.3923 2.2499 0.0 0
M  V30 22 C 13.1179 -0.4635 0.0 0
M  V30 23 C 15.4996 0.75 0.0 0
M  V30 24 C 10.3923 -0.75 0.0 0
M  V30 25 C 9.0932 1.4999 0.0 0
M  V30 26 C 13.5814 -1.8901 0.0 0
M  V30 27 C 9.0932 0.0 0.0 0
M  V30 28 C 7.7942 -0.75 0.0 0
M  V30 29 O 7.7942 -2.25 0.0 0
M  V30 30 N 6.4951 0.0 0.0 0
M  V30 31 C 5.1961 -0.75 0.0 0 CFG=2
M  V30 32 C 5.1961 -2.25 0.0 0
M  V30 33 C 3.8971 0.0 0.0 0
M  V30 34 C 3.8971 -2.9999 0.0 0
M  V30 35 C 6.4951 -3.0 0.0 0
M  V30 36 C 2.598 -0.75 0.0 0
M  V30 37 C 3.8971 -4.4999 0.0 0
M  V30 38 C 6.4951 -4.5 0.0 0
M  V30 39 C 1.299 0.0 0.0 0
M  V30 40 C 5.1961 -5.25 0.0 0
M  V30 41 C 2.598 -5.2499 0.0 0
M  V30 42 C 0.0 -0.75 0.0 0
M  V30 43 C 1.299 -4.4999 0.0 0
M  V30 44 C 2.598 -6.7499 0.0 0
M  V30 END ATOM
M  V30 BEGIN BOND
M  V30 1 2 1 2
M  V30 2 1 2 3
M  V30 3 1 2 4
M  V30 4 2 4 5
M  V30 5 1 4 6
M  V30 6 1 5 7
M  V30 7 1 5 8
M  V30 8 2 6 9
M  V30 9 2 7 10
M  V30 10 1 7 11
M  V30 11 2 8 12
M  V30 12 1 10 13
M  V30 13 2 11 14
M  V30 14 2 13 15
M  V30 15 1 15 16
M  V30 16 1 16 17
M  V30 17 1 17 18
M  V30 18 1 17 19
M  V30 19 2 18 20
M  V30 20 1 18 21
M  V30 21 2 19 22
M  V30 22 1 19 23
M  V30 23 1 20 24
M  V30 24 2 21 25
M  V30 25 1 22 26
M  V30 26 2 24 27
M  V30 27 1 27 28
M  V30 28 2 28 29
M  V30 29 1 28 30
M  V30 30 1 31 30 CFG=3
M  V30 31 1 31 32
M  V30 32 1 31 33
M  V30 33 2 32 34
M  V30 34 1 32 35
M  V30 35 1 33 36
M  V30 36 1 34 37
M  V30 37 2 35 38
M  V30 38 1 36 39
M  V30 39 2 37 40
M  V30 40 1 37 41
M  V30 41 1 39 42
M  V30 42 1 41 43
M  V30 43 1 41 44
M  V30 44 1 9 12
M  V30 45 1 14 15
M  V30 46 1 20 22
M  V30 47 1 25 27
M  V30 48 1 38 40
M  V30 END BOND
M  V30 BEGIN COLLECTION
M  V30 MDLV30/STEABS ATOMS=(1 31)
M  V30 END COLLECTION
M  V30 END CTAB
M  END
>  <Molecule ChEMBL ID>
CHEMBL3736501

>  <Smiles>
CCCC[C@H](NC(=O)c1ccc2c(c1)c(C)c(C)n2Cc1ccc(-c2ccccc2C(=O)O)cc1)c1cccc(C(C)C)c1

>  <IC50_nM>
81

>  <Assay Description>
Binding affinity to GST-tagged PPAR-gamma-LBD (unknown origin) after 2 hrs by Lantha screen assay using fluormone Pan-PPAR green probe

$$$$
CHEMBL3678154
Actelion Java MolfileCreator 2.0

  0  0  0  0  0  0              0 V3000
M  V30 BEGIN CTAB
M  V30 COUNTS 36 39 0 0 0
M  V30 BEGIN ATOM
M  V30 1 Cl 6.0621 -1.9999 0.0 0
M  V30 2 C 5.1961 -1.4999 0.0 0
M  V30 3 C 5.1961 -0.5 0.0 0
M  V30 4 C 4.3301 -1.9999 0.0 0
M  V30 5 C 4.3301 0.0 0.0 0
M  V30 6 C 3.4641 -1.5 0.0 0
M  V30 7 C 3.4641 -0.5 0.0 0
M  V30 8 C 2.598 0.0 0.0 0 CFG=1
M  V30 9 N 1.732 -0.5 0.0 0
M  V30 10 C 2.598 1.0 0.0 0
M  V30 11 C 0.866 0.0 0.0 0
M  V30 12 O 0.866 1.0 0.0 0
M  V30 13 C 0.0 -0.5 0.0 0
M  V30 14 C 0.0 -1.4999 0.0 0
M  V30 15 C -0.866 0.0 0.0 0
M  V30 16 C -0.866 -1.9999 0.0 0
M  V30 17 C -1.732 -0.4999 0.0 0
M  V30 18 C -1.732 -1.4999 0.0 0
M  V30 19 C -1.0739 -2.9781 0.0 0
M  V30 20 N -2.4751 -2.1691 0.0 0
M  V30 21 C -2.0684 -3.0826 0.0 0
M  V30 22 C -0.4048 -3.7212 0.0 0
M  V30 23 C -3.4533 -1.9612 0.0 0
M  V30 24 C -2.5684 -3.9487 0.0 0
M  V30 25 C -4.1224 -2.7043 0.0 0
M  V30 26 C -5.1006 -2.4964 0.0 0
M  V30 27 C -3.8134 -3.6554 0.0 0
M  V30 28 C -5.7697 -3.2395 0.0 0
M  V30 29 C -4.4825 -4.3985 0.0 0
M  V30 30 O -6.7478 -3.0316 0.0 0
M  V30 31 C -5.4607 -4.1906 0.0 0
M  V30 32 C -7.417 -3.7748 0.0 0 CFG=2
M  V30 33 C -8.3951 -3.5669 0.0 0
M  V30 34 C -7.108 -4.7258 0.0 0
M  V30 35 O -8.7041 -2.6158 0.0 0
M  V30 36 O -9.0643 -4.31 0.0 0
M  V30 END ATOM
M  V30 BEGIN BOND
M  V30 1 1 1 2
M  V30 2 2 2 3
M  V30 3 1 2 4
M  V30 4 1 3 5
M  V30 5 2 4 6
M  V30 6 2 5 7
M  V30 7 1 7 8
M  V30 8 1 8 9
M  V30 9 1 8 10 CFG=1
M  V30 10 1 9 11
M  V30 11 2 11 12
M  V30 12 1 11 13
M  V30 13 2 13 14
M  V30 14 1 13 15
M  V30 15 1 14 16
M  V30 16 2 15 17
M  V30 17 2 16 18
M  V30 18 1 16 19
M  V30 19 1 18 20
M  V30 20 2 19 21
M  V30 21 1 19 22
M  V30 22 1 20 23
M  V30 23 1 21 24
M  V30 24 1 23 25
M  V30 25 2 25 26
M  V30 26 1 25 27
M  V30 27 1 26 28
M  V30 28 2 27 29
M  V30 29 1 28 30
M  V30 30 2 28 31
M  V30 31 1 30 32
M  V30 32 1 32 33
M  V30 33 1 32 34 CFG=1
M  V30 34 2 33 35
M  V30 35 1 33 36
M  V30 36 1 6 7
M  V30 37 1 17 18
M  V30 38 1 20 21
M  V30 39 1 29 31
M  V30 END BOND
M  V30 BEGIN COLLECTION
M  V30 MDLV30/STEABS ATOMS=(2 8 32)
M  V30 END COLLECTION
M  V30 END CTAB
M  END
>  <Molecule ChEMBL ID>
CHEMBL3678154

>  <Smiles>
Cc1c(C)n(Cc2cccc(O[C@@H](C)C(=O)O)c2)c2ccc(C(=O)N[C@@H](C)c3ccc(Cl)cc3)cc12

>  <IC50_nM>
82

>  <Assay Description>
Lanthascreen Competitive Binding Assay: The assay was performed according to manufacturer protocol. A mixture of 5 nM GST-PPARG-LBD, 5 nM Tb-GST-antibody, 5 nM Fluormone Pan- PPAR Green, and serial dilutions of the experimental compound, beginning at 10 ׬� downwards, was added to wells of black 384-well low- volume plates (Greiner) to a total volume of 18 xL. All dilutions were made in TR-FRET assay buffer C. DMSO at 2% final concentration was used as a no-ligand control. Experiment was performed in triplicate, and incubated for 2 hours in the dark prior to assay read in Perkin Elmer ViewLux ultra HTS microplate reader. FRET signal was measured by excitation at 340 nm and emission at 520 nm for fluorescein and 490 nm for terbium.

$$$$
CHEMBL3678150
Actelion Java MolfileCreator 2.0

  0  0  0  0  0  0              0 V3000
M  V30 BEGIN CTAB
M  V30 COUNTS 39 42 0 0 0
M  V30 BEGIN ATOM
M  V30 1 O 16.6278 2.2222 0.0 0
M  V30 2 C 16.1642 0.7957 0.0 0
M  V30 3 N 17.1679 -0.319 0.0 0
M  V30 4 C 14.697 0.4838 0.0 0
M  V30 5 C 16.7044 -1.7455 0.0 0 CFG=2
M  V30 6 C 14.2335 -0.9427 0.0 0
M  V30 7 C 13.6933 1.5985 0.0 0
M  V30 8 C 17.7081 -2.8603 0.0 0
M  V30 9 C 15.2372 -2.0574 0.0 0
M  V30 10 C 12.7663 -1.2546 0.0 0
M  V30 11 C 12.2261 1.2866 0.0 0
M  V30 12 C 19.1753 -2.5484 0.0 0
M  V30 13 C 17.2446 -4.2868 0.0 0
M  V30 14 C 11.7626 -0.1398 0.0 0
M  V30 15 C 12.0163 -2.5536 0.0 0
M  V30 16 C 20.179 -3.6631 0.0 0
M  V30 17 C 18.2483 -5.4016 0.0 0
M  V30 18 N 10.3923 -0.75 0.0 0
M  V30 19 C 10.549 -2.2417 0.0 0
M  V30 20 C 12.6264 -3.9239 0.0 0
M  V30 21 C 19.7155 -5.0897 0.0 0
M  V30 22 C 21.6462 -3.3512 0.0 0
M  V30 23 C 9.0932 0.0 0.0 0
M  V30 24 C 9.4343 -3.2454 0.0 0
M  V30 25 C 21.9581 -4.8185 0.0 0
M  V30 26 C 23.1135 -3.0394 0.0 0
M  V30 27 C 21.3344 -1.884 0.0 0
M  V30 28 C 7.7942 -0.75 0.0 0
M  V30 29 C 6.4951 0.0 0.0 0
M  V30 30 C 7.7942 -2.25 0.0 0
M  V30 31 C 5.1961 -0.75 0.0 0
M  V30 32 C 6.4951 -3.0 0.0 0
M  V30 33 O 3.8971 0.0 0.0 0
M  V30 34 C 5.1961 -2.25 0.0 0
M  V30 35 C 2.598 -0.75 0.0 0 CFG=2
M  V30 36 C 1.299 0.0 0.0 0
M  V30 37 C 2.598 -2.25 0.0 0
M  V30 38 O 1.299 1.5 0.0 0
M  V30 39 O 0.0 -0.75 0.0 0
M  V30 END ATOM
M  V30 BEGIN BOND
M  V30 1 2 1 2
M  V30 2 1 2 3
M  V30 3 1 2 4
M  V30 4 1 3 5
M  V30 5 2 4 6
M  V30 6 1 4 7
M  V30 7 1 5 8
M  V30 8 1 5 9 CFG=3
M  V30 9 1 6 10
M  V30 10 2 7 11
M  V30 11 2 8 12
M  V30 12 1 8 13
M  V30 13 2 10 14
M  V30 14 1 10 15
M  V30 15 1 12 16
M  V30 16 2 13 17
M  V30 17 1 14 18
M  V30 18 2 15 19
M  V30 19 1 15 20
M  V30 20 2 16 21
M  V30 21 1 16 22
M  V30 22 1 18 23
M  V30 23 1 19 24
M  V30 24 1 22 25
M  V30 25 1 22 26
M  V30 26 1 22 27
M  V30 27 1 23 28
M  V30 28 2 28 29
M  V30 29 1 28 30
M  V30 30 1 29 31
M  V30 31 2 30 32
M  V30 32 1 31 33
M  V30 33 2 31 34
M  V30 34 1 33 35
M  V30 35 1 35 36
M  V30 36 1 35 37 CFG=1
M  V30 37 2 36 38
M  V30 38 1 36 39
M  V30 39 1 11 14
M  V30 40 1 17 21
M  V30 41 1 18 19
M  V30 42 1 32 34
M  V30 END BOND
M  V30 BEGIN COLLECTION
M  V30 MDLV30/STEABS ATOMS=(2 5 35)
M  V30 END COLLECTION
M  V30 END CTAB
M  END
>  <Molecule ChEMBL ID>
CHEMBL3678150

>  <Smiles>
Cc1c(C)n(Cc2cccc(O[C@@H](C)C(=O)O)c2)c2ccc(C(=O)N[C@@H](C)c3cccc(C(C)(C)C)c3)cc12

>  <IC50_nM>
82

>  <Assay Description>
Lanthascreen Competitive Binding Assay: The assay was performed according to manufacturer protocol. A mixture of 5 nM GST-PPARG-LBD, 5 nM Tb-GST-antibody, 5 nM Fluormone Pan- PPAR Green, and serial dilutions of the experimental compound, beginning at 10 ׬� downwards, was added to wells of black 384-well low- volume plates (Greiner) to a total volume of 18 xL. All dilutions were made in TR-FRET assay buffer C. DMSO at 2% final concentration was used as a no-ligand control. Experiment was performed in triplicate, and incubated for 2 hours in the dark prior to assay read in Perkin Elmer ViewLux ultra HTS microplate reader. FRET signal was measured by excitation at 340 nm and emission at 520 nm for fluorescein and 490 nm for terbium.

$$$$
CHEMBL372780
Actelion Java MolfileCreator 2.0

  0  0  0  0  0  0              0 V3000
M  V30 BEGIN CTAB
M  V30 COUNTS 38 41 0 0 0
M  V30 BEGIN ATOM
M  V30 1 Cl 4.2417 2.0167 0.0 0
M  V30 2 C 3.9327 1.0657 0.0 0
M  V30 3 C 2.9546 0.8577 0.0 0
M  V30 4 C 4.6018 0.3225 0.0 0
M  V30 5 C 2.6455 -0.0932 0.0 0
M  V30 6 C 4.2928 -0.6284 0.0 0
M  V30 7 C 1.732 -0.5 0.0 0
M  V30 8 C 3.3147 -0.8364 0.0 0
M  V30 9 O 0.866 0.0 0.0 0
M  V30 10 C 1.8365 -1.4945 0.0 0
M  V30 11 N 2.8147 -1.7024 0.0 0
M  V30 12 C 0.866 0.9999 0.0 0
M  V30 13 C 1.0934 -2.1636 0.0 0
M  V30 14 C 3.2214 -2.6159 0.0 0
M  V30 15 C 0.0 1.4999 0.0 0
M  V30 16 C 1.732 1.5 0.0 0
M  V30 17 O 0.1423 -1.8546 0.0 0
M  V30 18 O 1.3013 -3.1418 0.0 0
M  V30 19 C 2.6336 -3.4249 0.0 0
M  V30 20 C 4.2159 -2.7205 0.0 0
M  V30 21 C 0.0 2.4999 0.0 0
M  V30 22 C 1.732 2.5 0.0 0
M  V30 23 C 3.0404 -4.3385 0.0 0
M  V30 24 C 4.6227 -3.634 0.0 0
M  V30 25 C 0.866 3.0 0.0 0
M  V30 26 C -0.866 2.9999 0.0 0
M  V30 27 C 2.598 3.0 0.0 0
M  V30 28 C 4.0349 -4.443 0.0 0
M  V30 29 F -0.366 3.866 0.0 0
M  V30 30 F -1.732 3.4999 0.0 0
M  V30 31 F -1.366 2.1339 0.0 0
M  V30 32 F 3.098 2.1339 0.0 0
M  V30 33 F 3.4641 3.5 0.0 0
M  V30 34 F 2.098 3.866 0.0 0
M  V30 35 C 4.4416 -5.3566 0.0 0
M  V30 36 C 5.3552 -4.9498 0.0 0
M  V30 37 C 4.8484 -6.2701 0.0 0
M  V30 38 C 3.5281 -5.7633 0.0 0
M  V30 END ATOM
M  V30 BEGIN BOND
M  V30 1 1 1 2
M  V30 2 2 2 3
M  V30 3 1 2 4
M  V30 4 1 3 5
M  V30 5 2 4 6
M  V30 6 1 5 7
M  V30 7 2 5 8
M  V30 8 1 7 9
M  V30 9 2 7 10
M  V30 10 1 8 11
M  V30 11 1 9 12
M  V30 12 1 10 13
M  V30 13 1 11 14
M  V30 14 2 12 15
M  V30 15 1 12 16
M  V30 16 2 13 17
M  V30 17 1 13 18
M  V30 18 2 14 19
M  V30 19 1 14 20
M  V30 20 1 15 21
M  V30 21 2 16 22
M  V30 22 1 19 23
M  V30 23 2 20 24
M  V30 24 2 21 25
M  V30 25 1 21 26
M  V30 26 1 22 27
M  V30 27 2 23 28
M  V30 28 1 26 29
M  V30 29 1 26 30
M  V30 30 1 26 31
M  V30 31 1 27 32
M  V30 32 1 27 33
M  V30 33 1 27 34
M  V30 34 1 28 35
M  V30 35 1 35 36
M  V30 36 1 35 37
M  V30 37 1 35 38
M  V30 38 1 6 8
M  V30 39 1 10 11
M  V30 40 1 22 25
M  V30 41 1 24 28
M  V30 END BOND
M  V30 END CTAB
M  END
>  <Molecule ChEMBL ID>
CHEMBL372780

>  <Smiles>
CC(C)(C)c1ccc(-n2c(C(=O)O)c(Oc3cc(C(F)(F)F)cc(C(F)(F)F)c3)c3cc(Cl)ccc32)cc1

>  <IC50_nM>
83

>  <Assay Description>
Inhibitory concentration against human peroxisome proliferator activated receptor gamma in SPA assay

$$$$
CHEMBL1947144
Actelion Java MolfileCreator 2.0

  0  0  0  0  0  0              0 V3000
M  V30 BEGIN CTAB
M  V30 COUNTS 36 41 0 0 0
M  V30 BEGIN ATOM
M  V30 1 O 1.0934 -2.1636 0.0 0
M  V30 2 C 1.8365 -1.4945 0.0 0
M  V30 3 N 2.8147 -1.7024 0.0 0
M  V30 4 N 1.732 -0.5 0.0 0
M  V30 5 C 3.2214 -2.6159 0.0 0
M  V30 6 C 3.3147 -0.8364 0.0 0
M  V30 7 C 2.6455 -0.0932 0.0 0
M  V30 8 C 0.866 0.0 0.0 0
M  V30 9 N 2.7214 -3.482 0.0 0
M  V30 10 C 4.1996 -2.8238 0.0 0
M  V30 11 C 4.2928 -0.6284 0.0 0
M  V30 12 C 2.9546 0.8577 0.0 0
M  V30 13 C 0.0 -0.5 0.0 0
M  V30 14 O 3.3905 -4.2251 0.0 0
M  V30 15 C 4.3041 -3.8184 0.0 0
M  V30 16 C 5.0086 -2.2361 0.0 0
M  V30 17 C 4.6018 0.3225 0.0 0
M  V30 18 C 3.9327 1.0657 0.0 0
M  V30 19 C -0.866 0.0 0.0 0
M  V30 20 C 0.0 -1.4999 0.0 0
M  V30 21 C 5.2176 -4.2251 0.0 0
M  V30 22 C 5.9221 -2.6428 0.0 0
M  V30 23 C -1.732 -0.4999 0.0 0
M  V30 24 C -0.866 -1.9999 0.0 0
M  V30 25 C 6.0267 -3.6373 0.0 0
M  V30 26 C -1.732 -1.4999 0.0 0
M  V30 27 C -2.598 0.0 0.0 0 CFG=1
M  V30 28 O 6.9402 -4.0441 0.0 0
M  V30 29 O -2.7026 0.9945 0.0 0
M  V30 30 C -3.5116 -0.4067 0.0 0
M  V30 31 C -2.6504 -0.9986 0.0 0
M  V30 32 C 7.7492 -3.4563 0.0 0
M  V30 33 C -3.6807 1.2024 0.0 0
M  V30 34 O -3.7195 -1.3848 0.0 0
M  V30 35 N -4.1807 0.3364 0.0 0
M  V30 36 O -4.0874 2.1159 0.0 0
M  V30 END ATOM
M  V30 BEGIN BOND
M  V30 1 2 1 2
M  V30 2 1 2 3
M  V30 3 1 2 4
M  V30 4 1 3 5
M  V30 5 1 3 6
M  V30 6 1 4 7
M  V30 7 1 4 8
M  V30 8 2 5 9
M  V30 9 1 5 10
M  V30 10 1 6 11
M  V30 11 1 7 12
M  V30 12 1 8 13
M  V30 13 1 9 14
M  V30 14 2 10 15
M  V30 15 1 10 16
M  V30 16 2 11 17
M  V30 17 2 12 18
M  V30 18 2 13 19
M  V30 19 1 13 20
M  V30 20 1 15 21
M  V30 21 2 16 22
M  V30 22 1 19 23
M  V30 23 2 20 24
M  V30 24 2 21 25
M  V30 25 2 23 26
M  V30 26 1 23 27
M  V30 27 1 25 28
M  V30 28 1 27 29
M  V30 29 1 27 30
M  V30 30 1 27 31 CFG=1
M  V30 31 1 28 32
M  V30 32 1 29 33
M  V30 33 2 30 34
M  V30 34 1 30 35
M  V30 35 2 33 36
M  V30 36 2 6 7
M  V30 37 1 14 15
M  V30 38 1 17 18
M  V30 39 1 22 25
M  V30 40 1 24 26
M  V30 41 1 33 35
M  V30 END BOND
M  V30 BEGIN COLLECTION
M  V30 MDLV30/STEABS ATOMS=(1 27)
M  V30 END COLLECTION
M  V30 END CTAB
M  END
>  <Molecule ChEMBL ID>
CHEMBL1947144

>  <Smiles>
COc1ccc2c(-n3c(=O)n(Cc4cccc([C@@]5(C)OC(=O)NC5=O)c4)c4ccccc43)noc2c1

>  <IC50_nM>
83.1

>  <Assay Description>
Binding affinity to human PPARgamma by scintillation proximity assay

$$$$
CHEMBL178562
Actelion Java MolfileCreator 2.0

  0  0  0  0  0  0              0 V3000
M  V30 BEGIN CTAB
M  V30 COUNTS 33 36 0 0 0
M  V30 BEGIN ATOM
M  V30 1 Cl 1.4944 -7.3946 0.0 0
M  V30 2 C 2.9862 -7.5514 0.0 0
M  V30 3 C 3.5963 -8.9217 0.0 0
M  V30 4 C 3.8679 -6.3378 0.0 0
M  V30 5 C 5.0881 -9.0785 0.0 0
M  V30 6 C 5.3597 -6.4946 0.0 0
M  V30 7 C 5.9698 -7.8649 0.0 0
M  V30 8 C 7.4615 -8.0217 0.0 0
M  V30 9 O 8.0716 -9.3921 0.0 0
M  V30 10 N 8.3432 -6.8082 0.0 0
M  V30 11 C 9.8432 -6.8082 0.0 0
M  V30 12 C 7.8797 -5.3816 0.0 0
M  V30 13 C 10.3067 -5.3816 0.0 0
M  V30 14 C 10.8469 -7.9229 0.0 0
M  V30 15 C 9.0932 -4.5 0.0 0
M  V30 16 C 6.4531 -4.9181 0.0 0
M  V30 17 C 11.774 -5.0698 0.0 0
M  V30 18 C 12.3141 -7.6111 0.0 0
M  V30 19 C 9.0932 -3.0 0.0 0
M  V30 20 C 12.7777 -6.1845 0.0 0
M  V30 21 C 7.7942 -2.25 0.0 0
M  V30 22 O 14.2449 -5.8726 0.0 0
M  V30 23 C 7.7942 -0.75 0.0 0
M  V30 24 C 6.4951 -2.9999 0.0 0
M  V30 25 C 14.7084 -4.446 0.0 0
M  V30 26 C 6.4951 0.0 0.0 0
M  V30 27 C 5.1961 -2.25 0.0 0
M  V30 28 C 5.1961 -0.75 0.0 0
M  V30 29 O 3.8971 0.0 0.0 0
M  V30 30 C 2.598 -0.75 0.0 0
M  V30 31 C 1.299 0.0 0.0 0
M  V30 32 O 1.299 1.5 0.0 0
M  V30 33 O 0.0 -0.75 0.0 0
M  V30 END ATOM
M  V30 BEGIN BOND
M  V30 1 1 1 2
M  V30 2 2 2 3
M  V30 3 1 2 4
M  V30 4 1 3 5
M  V30 5 2 4 6
M  V30 6 2 5 7
M  V30 7 1 7 8
M  V30 8 2 8 9
M  V30 9 1 8 10
M  V30 10 1 10 11
M  V30 11 1 10 12
M  V30 12 2 11 13
M  V30 13 1 11 14
M  V30 14 2 12 15
M  V30 15 1 12 16
M  V30 16 1 13 17
M  V30 17 2 14 18
M  V30 18 1 15 19
M  V30 19 2 17 20
M  V30 20 1 19 21
M  V30 21 1 20 22
M  V30 22 2 21 23
M  V30 23 1 21 24
M  V30 24 1 22 25
M  V30 25 1 23 26
M  V30 26 2 24 27
M  V30 27 2 26 28
M  V30 28 1 28 29
M  V30 29 1 29 30
M  V30 30 1 30 31
M  V30 31 2 31 32
M  V30 32 1 31 33
M  V30 33 1 6 7
M  V30 34 1 13 15
M  V30 35 1 18 20
M  V30 36 1 27 28
M  V30 END BOND
M  V30 END CTAB
M  END
>  <Molecule ChEMBL ID>
CHEMBL178562

>  <Smiles>
COc1ccc2c(c1)c(Cc1ccc(OCC(=O)O)cc1)c(C)n2C(=O)c1ccc(Cl)cc1

>  <IC50_nM>
84

>  <Assay Description>
In vitro inhibition of human Peroxisome proliferator activated receptor gamma

$$$$
CHEMBL367360
Actelion Java MolfileCreator 2.0

  0  0  0  0  0  0              0 V3000
M  V30 BEGIN CTAB
M  V30 COUNTS 34 37 0 0 0
M  V30 BEGIN ATOM
M  V30 1 Cl 9.4002 -1.9223 0.0 0
M  V30 2 C 8.9935 -1.0087 0.0 0
M  V30 3 C 9.5813 -0.1997 0.0 0
M  V30 4 C 7.999 -0.9042 0.0 0
M  V30 5 C 9.1746 0.7138 0.0 0
M  V30 6 C 7.5923 0.0093 0.0 0
M  V30 7 C 8.18 0.8183 0.0 0
M  V30 8 C 7.7733 1.7318 0.0 0
M  V30 9 O 8.3611 2.5408 0.0 0
M  V30 10 N 6.7788 1.8364 0.0 0
M  V30 11 C 6.2788 2.7024 0.0 0
M  V30 12 C 6.1096 1.0932 0.0 0
M  V30 13 C 5.3006 2.4945 0.0 0
M  V30 14 C 6.5878 3.6534 0.0 0
M  V30 15 C 5.1961 1.4999 0.0 0
M  V30 16 C 6.3176 0.1151 0.0 0
M  V30 17 C 4.6315 3.2376 0.0 0
M  V30 18 C 5.9187 4.3966 0.0 0
M  V30 19 C 4.3301 1.0 0.0 0
M  V30 20 C 4.9405 4.1887 0.0 0
M  V30 21 C 4.3301 0.0 0.0 0
M  V30 22 O 4.2714 4.9318 0.0 0
M  V30 23 C 3.4641 -0.5 0.0 0
M  V30 24 C 5.1961 -0.5 0.0 0
M  V30 25 C 3.2932 4.7239 0.0 0
M  V30 26 O 2.598 0.0 0.0 0
M  V30 27 C 3.4641 -1.5 0.0 0
M  V30 28 C 5.1961 -1.5 0.0 0
M  V30 29 C 1.732 -0.5 0.0 0 CFG=2
M  V30 30 C 4.3301 -2.0 0.0 0
M  V30 31 C 0.866 0.0 0.0 0
M  V30 32 C 1.732 -1.5 0.0 0
M  V30 33 O 0.866 1.0 0.0 0
M  V30 34 O 0.0 -0.5 0.0 0
M  V30 END ATOM
M  V30 BEGIN BOND
M  V30 1 1 1 2
M  V30 2 2 2 3
M  V30 3 1 2 4
M  V30 4 1 3 5
M  V30 5 2 4 6
M  V30 6 2 5 7
M  V30 7 1 7 8
M  V30 8 2 8 9
M  V30 9 1 8 10
M  V30 10 1 10 11
M  V30 11 1 10 12
M  V30 12 2 11 13
M  V30 13 1 11 14
M  V30 14 2 12 15
M  V30 15 1 12 16
M  V30 16 1 13 17
M  V30 17 2 14 18
M  V30 18 1 15 19
M  V30 19 2 17 20
M  V30 20 1 19 21
M  V30 21 1 20 22
M  V30 22 2 21 23
M  V30 23 1 21 24
M  V30 24 1 22 25
M  V30 25 1 23 26
M  V30 26 1 23 27
M  V30 27 2 24 28
M  V30 28 1 26 29
M  V30 29 2 27 30
M  V30 30 1 29 31
M  V30 31 1 29 32 CFG=1
M  V30 32 2 31 33
M  V30 33 1 31 34
M  V30 34 1 6 7
M  V30 35 1 13 15
M  V30 36 1 18 20
M  V30 37 1 28 30
M  V30 END BOND
M  V30 BEGIN COLLECTION
M  V30 MDLV30/STERAC1 ATOMS=(1 29)
M  V30 END COLLECTION
M  V30 END CTAB
M  END
>  <Molecule ChEMBL ID>
CHEMBL367360

>  <Smiles>
COc1ccc2c(c1)c(Cc1ccccc1OC(C)C(=O)O)c(C)n2C(=O)c1ccc(Cl)cc1

>  <IC50_nM>
84

>  <Assay Description>
In vitro inhibition of human Peroxisome proliferator activated receptor gamma

$$$$
CHEMBL190517
Actelion Java MolfileCreator 2.0

  0  0  0  0  0  0              0 V3000
M  V30 BEGIN CTAB
M  V30 COUNTS 31 33 0 0 0
M  V30 BEGIN ATOM
M  V30 1 O 7.7349 -0.9999 0.0 0
M  V30 2 C 6.7349 -0.9999 0.0 0
M  V30 3 O 6.1472 -0.1909 0.0 0
M  V30 4 N 6.1472 -1.809 0.0 0
M  V30 5 C 5.1961 -0.4999 0.0 0
M  V30 6 C 5.1961 -1.4999 0.0 0
M  V30 7 C 6.4562 -2.76 0.0 0
M  V30 8 C 4.3301 0.0 0.0 0
M  V30 9 C 4.3301 -2.0 0.0 0
M  V30 10 C 3.4641 -0.5 0.0 0
M  V30 11 C 4.4224 1.0977 0.0 0
M  V30 12 C 3.4641 -1.4999 0.0 0
M  V30 13 O 2.598 0.0 0.0 0
M  V30 14 C 5.1961 1.4999 0.0 0
M  V30 15 C 2.598 -1.9999 0.0 0
M  V30 16 C 2.598 1.0 0.0 0 CFG=1
M  V30 17 C 6.0621 1.0 0.0 0
M  V30 18 C 2.598 -2.9999 0.0 0
M  V30 19 C 1.732 1.4999 0.0 0
M  V30 20 C 3.4641 1.5 0.0 0
M  V30 21 C 1.732 -3.4999 0.0 0
M  V30 22 C 1.732 2.4999 0.0 0
M  V30 23 C 0.866 0.9999 0.0 0
M  V30 24 O 4.2408 0.7664 0.0 0
M  V30 25 O 3.4641 2.5 0.0 0
M  V30 26 C 0.866 3.0 0.0 0
M  V30 27 C 0.0 1.4999 0.0 0
M  V30 28 C 0.0 2.5 0.0 0
M  V30 29 C -0.866 2.9999 0.0 0
M  V30 30 C -0.866 4.0 0.0 0
M  V30 31 C -1.732 2.5 0.0 0
M  V30 END ATOM
M  V30 BEGIN BOND
M  V30 1 2 1 2
M  V30 2 1 2 3
M  V30 3 1 2 4
M  V30 4 1 3 5
M  V30 5 1 4 6
M  V30 6 1 4 7
M  V30 7 1 5 8
M  V30 8 1 6 9
M  V30 9 2 8 10
M  V30 10 1 8 11
M  V30 11 2 9 12
M  V30 12 1 10 13
M  V30 13 1 11 14
M  V30 14 1 12 15
M  V30 15 1 16 13 CFG=1
M  V30 16 1 14 17
M  V30 17 1 15 18
M  V30 18 1 16 19
M  V30 19 1 16 20
M  V30 20 1 18 21
M  V30 21 2 19 22
M  V30 22 1 19 23
M  V30 23 2 20 24
M  V30 24 1 20 25
M  V30 25 1 22 26
M  V30 26 2 23 27
M  V30 27 2 26 28
M  V30 28 1 28 29
M  V30 29 1 29 30
M  V30 30 1 29 31
M  V30 31 2 5 6
M  V30 32 1 10 12
M  V30 33 1 27 28
M  V30 END BOND
M  V30 BEGIN COLLECTION
M  V30 MDLV30/STEABS ATOMS=(1 16)
M  V30 END COLLECTION
M  V30 END CTAB
M  END
>  <Molecule ChEMBL ID>
CHEMBL190517

>  <Smiles>
CCCc1cc2c(oc(=O)n2C)c(CCC)c1O[C@H](C(=O)O)c1ccc(C(C)C)cc1

>  <IC50_nM>
85

>  <Assay Description>
In vitro binding affinity for human PPAR gamma

$$$$
CHEMBL118753
Actelion Java MolfileCreator 2.0

  0  0  0  0  0  0              0 V3000
M  V30 BEGIN CTAB
M  V30 COUNTS 35 38 0 0 0
M  V30 BEGIN ATOM
M  V30 1 S 8.7077 -0.4067 0.0 0
M  V30 2 C 9.3769 0.3364 0.0 0
M  V30 3 C 7.7942 0.0 0.0 0 CFG=2
M  V30 4 O 10.3714 0.2318 0.0 0
M  V30 5 N 8.8769 1.2024 0.0 0
M  V30 6 C 6.9282 -0.5 0.0 0
M  V30 7 C 7.8987 0.9945 0.0 0
M  V30 8 C 6.0621 0.0 0.0 0
M  V30 9 C 6.9282 -1.5 0.0 0
M  V30 10 O 7.1556 1.6636 0.0 0
M  V30 11 C 5.1961 -0.5 0.0 0
M  V30 12 C 6.0621 -2.0 0.0 0
M  V30 13 O 4.3301 0.0 0.0 0
M  V30 14 C 5.1961 -1.5 0.0 0
M  V30 15 C 3.4641 -0.5 0.0 0
M  V30 16 C 2.598 0.0 0.0 0
M  V30 17 C 1.732 -0.5 0.0 0
M  V30 18 O 0.866 0.0 0.0 0
M  V30 19 C 0.0 -0.5 0.0 0
M  V30 20 C -0.866 0.0 0.0 0
M  V30 21 C 0.0 -1.4999 0.0 0
M  V30 22 C -1.732 -0.4999 0.0 0
M  V30 23 C -0.866 1.0 0.0 0
M  V30 24 C -0.866 -1.9999 0.0 0
M  V30 25 C -1.732 -1.4999 0.0 0
M  V30 26 C 0.0 1.5 0.0 0
M  V30 27 O -2.598 -1.9999 0.0 0
M  V30 28 C 0.0 2.5 0.0 0
M  V30 29 C -2.598 -2.9999 0.0 0
M  V30 30 C -3.499 -3.4338 0.0 0
M  V30 31 C -1.6971 -3.4338 0.0 0
M  V30 32 C -3.7215 -4.4088 0.0 0
M  V30 33 C -1.4745 -4.4088 0.0 0
M  V30 34 C -3.098 -5.1906 0.0 0
M  V30 35 C -2.098 -5.1906 0.0 0
M  V30 END ATOM
M  V30 BEGIN BOND
M  V30 1 1 1 2
M  V30 2 1 1 3
M  V30 3 2 2 4
M  V30 4 1 2 5
M  V30 5 1 3 6 CFG=3
M  V30 6 1 3 7
M  V30 7 2 6 8
M  V30 8 1 6 9
M  V30 9 2 7 10
M  V30 10 1 8 11
M  V30 11 2 9 12
M  V30 12 1 11 13
M  V30 13 2 11 14
M  V30 14 1 13 15
M  V30 15 1 15 16
M  V30 16 1 16 17
M  V30 17 1 17 18
M  V30 18 1 18 19
M  V30 19 2 19 20
M  V30 20 1 19 21
M  V30 21 1 20 22
M  V30 22 1 20 23
M  V30 23 2 21 24
M  V30 24 2 22 25
M  V30 25 1 23 26
M  V30 26 1 25 27
M  V30 27 1 26 28
M  V30 28 1 27 29
M  V30 29 1 29 30
M  V30 30 1 29 31
M  V30 31 1 30 32
M  V30 32 1 31 33
M  V30 33 1 32 34
M  V30 34 1 33 35
M  V30 35 1 5 7
M  V30 36 1 12 14
M  V30 37 1 24 25
M  V30 38 1 34 35
M  V30 END BOND
M  V30 BEGIN COLLECTION
M  V30 MDLV30/STERAC1 ATOMS=(1 3)
M  V30 END COLLECTION
M  V30 END CTAB
M  END
>  <Molecule ChEMBL ID>
CHEMBL118753

>  <Smiles>
CCCc1cc(OC2CCCCCC2)ccc1OCCCOc1cccc(C2SC(=O)NC2=O)c1

>  <IC50_nM>
85

>  <Assay Description>
In vitro binding affinity against human peroxisome proliferator activated receptor gamma

$$$$
CHEMBL1783032
Actelion Java MolfileCreator 2.0

  0  0  0  0  0  0              0 V3000
M  V30 BEGIN CTAB
M  V30 COUNTS 35 38 0 0 0
M  V30 BEGIN ATOM
M  V30 1 S 8.7077 -0.4067 0.0 0
M  V30 2 C 9.3769 0.3364 0.0 0
M  V30 3 C 7.7942 0.0 0.0 0 CFG=2
M  V30 4 O 10.3714 0.2318 0.0 0
M  V30 5 N 8.8769 1.2024 0.0 0
M  V30 6 C 6.9282 -0.5 0.0 0
M  V30 7 C 7.8987 0.9945 0.0 0
M  V30 8 C 6.0621 0.0 0.0 0
M  V30 9 C 6.9282 -1.5 0.0 0
M  V30 10 O 7.1556 1.6636 0.0 0
M  V30 11 C 5.1961 -0.5 0.0 0
M  V30 12 C 6.0621 -2.0 0.0 0
M  V30 13 O 4.3301 0.0 0.0 0
M  V30 14 C 5.1961 -1.5 0.0 0
M  V30 15 C 3.4641 -0.5 0.0 0
M  V30 16 C 2.598 0.0 0.0 0
M  V30 17 C 1.732 -0.5 0.0 0
M  V30 18 O 0.866 0.0 0.0 0
M  V30 19 C 0.0 -0.5 0.0 0
M  V30 20 C -0.866 0.0 0.0 0
M  V30 21 C 0.0 -1.4999 0.0 0
M  V30 22 C -1.732 -0.4999 0.0 0
M  V30 23 C -0.866 1.0 0.0 0
M  V30 24 C -0.866 -1.9999 0.0 0
M  V30 25 C -1.732 -1.4999 0.0 0
M  V30 26 C 0.0 1.5 0.0 0
M  V30 27 O -2.598 -1.9999 0.0 0
M  V30 28 C 0.0 2.5 0.0 0
M  V30 29 C -2.598 -2.9999 0.0 0
M  V30 30 C -3.499 -3.4338 0.0 0
M  V30 31 C -1.6971 -3.4338 0.0 0
M  V30 32 C -3.7215 -4.4088 0.0 0
M  V30 33 C -1.4745 -4.4088 0.0 0
M  V30 34 C -3.098 -5.1906 0.0 0
M  V30 35 C -2.098 -5.1906 0.0 0
M  V30 END ATOM
M  V30 BEGIN BOND
M  V30 1 1 1 2
M  V30 2 1 1 3
M  V30 3 2 2 4
M  V30 4 1 2 5
M  V30 5 1 3 6 CFG=3
M  V30 6 1 3 7
M  V30 7 2 6 8
M  V30 8 1 6 9
M  V30 9 2 7 10
M  V30 10 1 8 11
M  V30 11 2 9 12
M  V30 12 1 11 13
M  V30 13 2 11 14
M  V30 14 1 13 15
M  V30 15 1 15 16
M  V30 16 1 16 17
M  V30 17 1 17 18
M  V30 18 1 18 19
M  V30 19 2 19 20
M  V30 20 1 19 21
M  V30 21 1 20 22
M  V30 22 1 20 23
M  V30 23 2 21 24
M  V30 24 2 22 25
M  V30 25 1 23 26
M  V30 26 1 25 27
M  V30 27 1 26 28
M  V30 28 1 27 29
M  V30 29 1 29 30
M  V30 30 1 29 31
M  V30 31 1 30 32
M  V30 32 1 31 33
M  V30 33 1 32 34
M  V30 34 1 33 35
M  V30 35 1 5 7
M  V30 36 1 12 14
M  V30 37 1 24 25
M  V30 38 1 34 35
M  V30 END BOND
M  V30 BEGIN COLLECTION
M  V30 MDLV30/STEABS ATOMS=(1 3)
M  V30 END COLLECTION
M  V30 END CTAB
M  END
>  <Molecule ChEMBL ID>
CHEMBL1783032

>  <Smiles>
CCCc1cc(OC2CCCCCC2)ccc1OCCCOc1cccc([C@H]2SC(=O)NC2=O)c1

>  <IC50_nM>
85

>  <Assay Description>
Displacement of radio-labeled full agonist from PPARgamma receptor

$$$$
CHEMBL192636
Actelion Java MolfileCreator 2.0

  0  0  0  0  0  0              0 V3000
M  V30 BEGIN CTAB
M  V30 COUNTS 33 35 0 0 0
M  V30 BEGIN ATOM
M  V30 1 O 7.7349 -0.9999 0.0 0
M  V30 2 C 6.7349 -0.9999 0.0 0
M  V30 3 O 6.1472 -0.1909 0.0 0
M  V30 4 N 6.1472 -1.809 0.0 0
M  V30 5 C 5.1961 -0.4999 0.0 0
M  V30 6 C 5.1961 -1.4999 0.0 0
M  V30 7 C 6.4562 -2.76 0.0 0
M  V30 8 C 4.3301 0.0 0.0 0
M  V30 9 C 4.3301 -2.0 0.0 0
M  V30 10 C 5.787 -3.5032 0.0 0
M  V30 11 C 3.4641 -0.5 0.0 0
M  V30 12 C 4.4224 1.0977 0.0 0
M  V30 13 C 3.4641 -1.4999 0.0 0
M  V30 14 C 6.0961 -4.4542 0.0 0
M  V30 15 O 2.598 0.0 0.0 0
M  V30 16 C 5.1961 1.4999 0.0 0
M  V30 17 C 2.598 -1.9999 0.0 0
M  V30 18 C 2.598 1.0 0.0 0 CFG=1
M  V30 19 C 6.0621 1.0 0.0 0
M  V30 20 C 2.598 -2.9999 0.0 0
M  V30 21 C 1.732 1.4999 0.0 0
M  V30 22 C 3.4641 1.5 0.0 0
M  V30 23 C 1.732 -3.4999 0.0 0
M  V30 24 C 1.732 2.4999 0.0 0
M  V30 25 C 0.866 0.9999 0.0 0
M  V30 26 O 4.2408 0.7664 0.0 0
M  V30 27 O 3.4641 2.5 0.0 0
M  V30 28 C 0.866 3.0 0.0 0
M  V30 29 C 0.0 1.4999 0.0 0
M  V30 30 C 0.0 2.5 0.0 0
M  V30 31 C -0.866 2.9999 0.0 0
M  V30 32 C -0.866 4.0 0.0 0
M  V30 33 C -1.732 2.5 0.0 0
M  V30 END ATOM
M  V30 BEGIN BOND
M  V30 1 2 1 2
M  V30 2 1 2 3
M  V30 3 1 2 4
M  V30 4 1 3 5
M  V30 5 1 4 6
M  V30 6 1 4 7
M  V30 7 1 5 8
M  V30 8 1 6 9
M  V30 9 1 7 10
M  V30 10 2 8 11
M  V30 11 1 8 12
M  V30 12 2 9 13
M  V30 13 1 10 14
M  V30 14 1 11 15
M  V30 15 1 12 16
M  V30 16 1 13 17
M  V30 17 1 18 15 CFG=1
M  V30 18 1 16 19
M  V30 19 1 17 20
M  V30 20 1 18 21
M  V30 21 1 18 22
M  V30 22 1 20 23
M  V30 23 2 21 24
M  V30 24 1 21 25
M  V30 25 2 22 26
M  V30 26 1 22 27
M  V30 27 1 24 28
M  V30 28 2 25 29
M  V30 29 2 28 30
M  V30 30 1 30 31
M  V30 31 1 31 32
M  V30 32 1 31 33
M  V30 33 2 5 6
M  V30 34 1 11 13
M  V30 35 1 29 30
M  V30 END BOND
M  V30 BEGIN COLLECTION
M  V30 MDLV30/STEABS ATOMS=(1 18)
M  V30 END COLLECTION
M  V30 END CTAB
M  END
>  <Molecule ChEMBL ID>
CHEMBL192636

>  <Smiles>
CCCc1cc2c(oc(=O)n2CCC)c(CCC)c1O[C@H](C(=O)O)c1ccc(C(C)C)cc1

>  <IC50_nM>
87

>  <Assay Description>
In vitro binding affinity for human PPAR gamma

$$$$
CHEMBL241299
Actelion Java MolfileCreator 2.0

  0  0  0  0  0  0              0 V3000
M  V30 BEGIN CTAB
M  V30 COUNTS 31 33 0 0 0
M  V30 BEGIN ATOM
M  V30 1 Cl 7.7942 -2.0 0.0 0
M  V30 2 C 6.9282 -1.5 0.0 0
M  V30 3 C 6.9282 -0.5 0.0 0
M  V30 4 C 6.0621 -2.0 0.0 0
M  V30 5 C 6.0621 0.0 0.0 0
M  V30 6 C 5.1961 -1.5 0.0 0
M  V30 7 C 5.1961 -0.5 0.0 0
M  V30 8 C 6.0621 0.9999 0.0 0
M  V30 9 O 4.3301 0.0 0.0 0
M  V30 10 N 6.9282 1.4999 0.0 0
M  V30 11 C 5.1961 1.5 0.0 0
M  V30 12 C 3.4641 -0.5 0.0 0 CFG=1
M  V30 13 C 6.9282 2.4999 0.0 0
M  V30 14 C 5.1961 2.5 0.0 0
M  V30 15 C 2.598 0.0 0.0 0
M  V30 16 C 3.4641 -1.5 0.0 0
M  V30 17 C 6.0621 2.9999 0.0 0
M  V30 18 C 1.732 -0.5 0.0 0
M  V30 19 O 0.866 0.0 0.0 0
M  V30 20 C 0.0 -0.5 0.0 0
M  V30 21 C -0.866 0.0 0.0 0
M  V30 22 C 0.0 -1.4999 0.0 0
M  V30 23 C -1.732 -0.4999 0.0 0
M  V30 24 C -0.866 -1.9999 0.0 0
M  V30 25 C -1.732 -1.4999 0.0 0
M  V30 26 C -2.598 0.0 0.0 0
M  V30 27 C -2.598 -1.9999 0.0 0
M  V30 28 C -2.598 -2.9999 0.0 0
M  V30 29 C -3.4641 -3.4999 0.0 0
M  V30 30 O -4.3301 -2.9999 0.0 0
M  V30 31 O -3.4641 -4.4999 0.0 0
M  V30 END ATOM
M  V30 BEGIN BOND
M  V30 1 1 1 2
M  V30 2 2 2 3
M  V30 3 1 2 4
M  V30 4 1 3 5
M  V30 5 2 4 6
M  V30 6 2 5 7
M  V30 7 1 5 8
M  V30 8 1 7 9
M  V30 9 2 8 10
M  V30 10 1 8 11
M  V30 11 1 9 12
M  V30 12 1 10 13
M  V30 13 2 11 14
M  V30 14 1 12 15
M  V30 15 1 12 16 CFG=3
M  V30 16 2 13 17
M  V30 17 1 15 18
M  V30 18 1 18 19
M  V30 19 1 19 20
M  V30 20 2 20 21
M  V30 21 1 20 22
M  V30 22 1 21 23
M  V30 23 2 22 24
M  V30 24 2 23 25
M  V30 25 1 23 26
M  V30 26 1 25 27
M  V30 27 1 27 28
M  V30 28 1 28 29
M  V30 29 2 29 30
M  V30 30 1 29 31
M  V30 31 1 6 7
M  V30 32 1 14 17
M  V30 33 1 24 25
M  V30 END BOND
M  V30 BEGIN COLLECTION
M  V30 MDLV30/STEABS ATOMS=(1 12)
M  V30 END COLLECTION
M  V30 END CTAB
M  END
>  <Molecule ChEMBL ID>
CHEMBL241299

>  <Smiles>
Cc1cc(OCC[C@@H](C)Oc2ccc(Cl)cc2-c2ccccn2)ccc1CCC(=O)O

>  <IC50_nM>
88

>  <Assay Description>
Displacement of [3H]2-methyl-2-(4-{3-[porpyl-(5-pyridin-2yl-thiophene-2-sulfonyl)-amino]-propyl}-phenoxy)-propionic acid from human PPARgamma

$$$$
CHEMBL3699394
Actelion Java MolfileCreator 2.0

  0  0  0  0  0  0              0 V3000
M  V30 BEGIN CTAB
M  V30 COUNTS 40 45 0 0 0
M  V30 BEGIN ATOM
M  V30 1 O 9.4516 5.7369 0.0 0
M  V30 2 C 9.1426 4.7859 0.0 0
M  V30 3 O 8.1645 4.578 0.0 0
M  V30 4 C 9.8118 4.0427 0.0 0
M  V30 5 C 9.5027 3.0917 0.0 0
M  V30 6 C 10.7899 4.2506 0.0 0
M  V30 7 C 8.5246 2.8838 0.0 0
M  V30 8 C 10.1719 2.3485 0.0 0
M  V30 9 C 11.459 3.5075 0.0 0
M  V30 10 C 7.8555 3.6269 0.0 0
M  V30 11 C 8.2156 1.9327 0.0 0
M  V30 12 C 11.15 2.5564 0.0 0
M  V30 13 C 6.8773 3.419 0.0 0
M  V30 14 C 7.2374 1.7248 0.0 0
M  V30 15 C 6.5683 2.4679 0.0 0
M  V30 16 C 5.5902 2.26 0.0 0
M  V30 17 N 5.2811 1.309 0.0 0
M  V30 18 C 4.3301 1.0 0.0 0
M  V30 19 C 5.8689 0.5 0.0 0
M  V30 20 C 4.3301 0.0 0.0 0
M  V30 21 C 3.4641 1.5 0.0 0
M  V30 22 C 5.2811 -0.309 0.0 0
M  V30 23 C 6.8689 0.5 0.0 0
M  V30 24 C 3.4641 -0.4999 0.0 0
M  V30 25 C 2.598 0.9999 0.0 0
M  V30 26 C 5.5902 -1.26 0.0 0
M  V30 27 C 2.598 0.0 0.0 0
M  V30 28 C 1.732 -0.5 0.0 0
M  V30 29 O 1.732 -1.5 0.0 0
M  V30 30 N 0.866 0.0 0.0 0
M  V30 31 C 0.0 -0.5 0.0 0 CFG=2
M  V30 32 C -0.866 0.0 0.0 0
M  V30 33 C 0.0 -1.4999 0.0 0
M  V30 34 O -1.732 -0.4999 0.0 0
M  V30 35 C -0.866 -1.9999 0.0 0
M  V30 36 C -1.732 -1.4999 0.0 0
M  V30 37 C -0.866 -2.9999 0.0 0
M  V30 38 C -2.598 -1.9999 0.0 0
M  V30 39 C -1.732 -3.4999 0.0 0
M  V30 40 C -2.598 -2.9999 0.0 0
M  V30 END ATOM
M  V30 BEGIN BOND
M  V30 1 2 1 2
M  V30 2 1 2 3
M  V30 3 1 2 4
M  V30 4 2 4 5
M  V30 5 1 4 6
M  V30 6 1 5 7
M  V30 7 1 5 8
M  V30 8 2 6 9
M  V30 9 2 7 10
M  V30 10 1 7 11
M  V30 11 2 8 12
M  V30 12 1 10 13
M  V30 13 2 11 14
M  V30 14 2 13 15
M  V30 15 1 15 16
M  V30 16 1 16 17
M  V30 17 1 17 18
M  V30 18 1 17 19
M  V30 19 2 18 20
M  V30 20 1 18 21
M  V30 21 2 19 22
M  V30 22 1 19 23
M  V30 23 1 20 24
M  V30 24 2 21 25
M  V30 25 1 22 26
M  V30 26 2 24 27
M  V30 27 1 27 28
M  V30 28 2 28 29
M  V30 29 1 28 30
M  V30 30 1 31 30 CFG=1
M  V30 31 1 31 32
M  V30 32 1 31 33
M  V30 33 1 32 34
M  V30 34 1 33 35
M  V30 35 1 34 36
M  V30 36 1 35 37
M  V30 37 1 36 38
M  V30 38 2 37 39
M  V30 39 2 38 40
M  V30 40 1 9 12
M  V30 41 1 14 15
M  V30 42 1 20 22
M  V30 43 1 25 27
M  V30 44 2 35 36
M  V30 45 1 39 40
M  V30 END BOND
M  V30 BEGIN COLLECTION
M  V30 MDLV30/STEABS ATOMS=(1 31)
M  V30 END COLLECTION
M  V30 END CTAB
M  END
>  <Molecule ChEMBL ID>
CHEMBL3699394

>  <Smiles>
Cc1c(C)n(Cc2ccc(-c3ccccc3C(=O)O)cc2)c2ccc(C(=O)N[C@@H]3COc4ccccc4C3)cc12

>  <IC50_nM>
88

>  <Assay Description>
Lanthascreen Competitive Binding Assay: The assay was performed according to manufacturer protocol. A mixture of nM GST-PPARG-LBD, 5 nM Tb-GST-antibody, 5 nM Fluormone Pan-PPAR Green, and serial dilutions of the experimental compound, beginning at 10 ׬M downwards, was added to wells of black 384-well low-volume plates (Greiner) to a total volume of 18 ׬L. All dilutions were made in TR-FRET assay buffer C. DMSO at 2% final concentration was used as a no-ligand control. Experiment was performed in triplicate, and incubated for 2 hours in the dark prior to assay read in Perkin Elmer ViewLux ultra HTS microplate reader. FRET signal was measured by excitation at 340 nm and emission at 520 nm for fluorescein and 490 nm for terbium. Fold change over DMSO was calculated using GraphPad Prism Software (La Jolla, Calif.) by calculating 520 nm/490 nm ratio. Graphs were plotted as fold change of FRET signal for compound treatment over DMSO-only control.

$$$$
CHEMBL121
Actelion Java MolfileCreator 2.0

  0  0  0  0  0  0              0 V3000
M  V30 BEGIN CTAB
M  V30 COUNTS 25 27 0 0 0
M  V30 BEGIN ATOM
M  V30 1 S 7.8987 0.0054 0.0 0
M  V30 2 C 8.8769 -0.2024 0.0 0
M  V30 3 C 7.7942 0.9999 0.0 0 CFG=2
M  V30 4 O 9.2836 -1.1159 0.0 0
M  V30 5 N 9.3769 0.6635 0.0 0
M  V30 6 C 8.7077 1.4067 0.0 0
M  V30 7 C 6.9282 1.4999 0.0 0
M  V30 8 O 8.9156 2.3848 0.0 0
M  V30 9 C 6.0621 0.9999 0.0 0
M  V30 10 C 5.1961 1.4999 0.0 0
M  V30 11 C 6.0621 0.0 0.0 0
M  V30 12 C 4.3301 0.9999 0.0 0
M  V30 13 C 5.1961 -0.5 0.0 0
M  V30 14 C 4.3301 0.0 0.0 0
M  V30 15 O 3.4641 -0.5 0.0 0
M  V30 16 C 2.598 0.0 0.0 0
M  V30 17 C 1.732 -0.5 0.0 0
M  V30 18 N 0.866 0.0 0.0 0
M  V30 19 C 0.866 1.0 0.0 0
M  V30 20 C 0.0 -0.5 0.0 0
M  V30 21 N 1.732 1.4999 0.0 0
M  V30 22 C 0.0 1.4999 0.0 0
M  V30 23 C 1.732 2.5 0.0 0
M  V30 24 C 0.0 2.5 0.0 0
M  V30 25 C 0.866 3.0 0.0 0
M  V30 END ATOM
M  V30 BEGIN BOND
M  V30 1 1 1 2
M  V30 2 1 1 3
M  V30 3 2 2 4
M  V30 4 1 2 5
M  V30 5 1 3 6
M  V30 6 1 3 7 CFG=1
M  V30 7 2 6 8
M  V30 8 1 7 9
M  V30 9 2 9 10
M  V30 10 1 9 11
M  V30 11 1 10 12
M  V30 12 2 11 13
M  V30 13 2 12 14
M  V30 14 1 14 15
M  V30 15 1 15 16
M  V30 16 1 16 17
M  V30 17 1 17 18
M  V30 18 1 18 19
M  V30 19 1 18 20
M  V30 20 2 19 21
M  V30 21 1 19 22
M  V30 22 1 21 23
M  V30 23 2 22 24
M  V30 24 2 23 25
M  V30 25 1 5 6
M  V30 26 1 13 14
M  V30 27 1 24 25
M  V30 END BOND
M  V30 BEGIN COLLECTION
M  V30 MDLV30/STERAC1 ATOMS=(1 3)
M  V30 END COLLECTION
M  V30 END CTAB
M  END
>  <Molecule ChEMBL ID>
CHEMBL121

>  <Smiles>
CN(CCOc1ccc(CC2SC(=O)NC2=O)cc1)c1ccccn1

>  <IC50_nM>
88.4

>  <Assay Description>
Agonist activity at PPARg-LBD (unknown origin) expressed in HEK293 cells assessed as displacement of NCoR incubated for 16 hrs by luciferase reporter gene based mammalian two hybrid assay

$$$$
CHEMBL3398459
Actelion Java MolfileCreator 2.0

  0  0  0  0  0  0              0 V3000
M  V30 BEGIN CTAB
M  V30 COUNTS 40 44 0 0 0
M  V30 BEGIN ATOM
M  V30 1 O 7.8298 -6.4249 0.0 0
M  V30 2 C 8.4176 -5.6159 0.0 0
M  V30 3 O 9.4121 -5.7205 0.0 0
M  V30 4 N 8.0108 -4.7024 0.0 0
M  V30 5 C 9.9999 -4.9114 0.0 0
M  V30 6 C 8.5108 -3.8364 0.0 0
M  V30 7 C 7.0327 -4.4945 0.0 0
M  V30 8 C 10.9944 -5.016 0.0 0
M  V30 9 C 9.5931 -3.9979 0.0 0
M  V30 10 C 7.8417 -3.0932 0.0 0 CFG=1
M  V30 11 C 6.9282 -3.5 0.0 0 CFG=2
M  V30 12 C 11.5822 -4.207 0.0 0
M  V30 13 C 10.1809 -3.1889 0.0 0
M  V30 14 C 8.0496 -2.1151 0.0 0
M  V30 15 C 6.0621 -3.0 0.0 0
M  V30 16 C 11.1754 -3.2934 0.0 0
M  V30 17 O 9.0007 -1.806 0.0 0
M  V30 18 O 7.3065 -1.4459 0.0 0
M  V30 19 C 6.0621 -1.9999 0.0 0
M  V30 20 C 5.1961 -1.4999 0.0 0
M  V30 21 C 5.1961 -0.5 0.0 0
M  V30 22 C 4.3301 -1.9999 0.0 0
M  V30 23 C 4.3301 0.0 0.0 0
M  V30 24 C 3.4641 -1.5 0.0 0
M  V30 25 C 3.4641 -0.5 0.0 0
M  V30 26 O 2.598 0.0 0.0 0
M  V30 27 C 1.732 -0.5 0.0 0
M  V30 28 C 0.866 0.0 0.0 0
M  V30 29 C 0.0 -0.5 0.0 0
M  V30 30 N -0.9135 -0.0932 0.0 0
M  V30 31 C -0.1045 -1.4945 0.0 0
M  V30 32 C -1.5826 -0.8364 0.0 0
M  V30 33 O -1.0826 -1.7024 0.0 0
M  V30 34 C 0.6386 -2.1636 0.0 0
M  V30 35 C -2.5771 -0.7318 0.0 0
M  V30 36 C -2.9839 0.1816 0.0 0
M  V30 37 C -3.1649 -1.5408 0.0 0
M  V30 38 C -3.9784 0.2861 0.0 0
M  V30 39 C -4.1595 -1.4363 0.0 0
M  V30 40 C -4.5662 -0.5228 0.0 0
M  V30 END ATOM
M  V30 BEGIN BOND
M  V30 1 2 1 2
M  V30 2 1 2 3
M  V30 3 1 2 4
M  V30 4 1 3 5
M  V30 5 1 4 6
M  V30 6 1 4 7
M  V30 7 2 5 8
M  V30 8 1 5 9
M  V30 9 1 6 10
M  V30 10 1 7 11
M  V30 11 1 8 12
M  V30 12 2 9 13
M  V30 13 1 10 14 CFG=1
M  V30 14 1 11 15 CFG=1
M  V30 15 2 12 16
M  V30 16 2 14 17
M  V30 17 1 14 18
M  V30 18 1 15 19
M  V30 19 1 19 20
M  V30 20 2 20 21
M  V30 21 1 20 22
M  V30 22 1 21 23
M  V30 23 2 22 24
M  V30 24 2 23 25
M  V30 25 1 25 26
M  V30 26 1 26 27
M  V30 27 1 27 28
M  V30 28 1 28 29
M  V30 29 1 29 30
M  V30 30 2 29 31
M  V30 31 2 30 32
M  V30 32 1 31 33
M  V30 33 1 31 34
M  V30 34 1 32 35
M  V30 35 2 35 36
M  V30 36 1 35 37
M  V30 37 1 36 38
M  V30 38 2 37 39
M  V30 39 2 38 40
M  V30 40 1 10 11
M  V30 41 1 13 16
M  V30 42 1 24 25
M  V30 43 1 32 33
M  V30 44 1 39 40
M  V30 END BOND
M  V30 BEGIN COLLECTION
M  V30 MDLV30/STEABS ATOMS=(2 10 11)
M  V30 END COLLECTION
M  V30 END CTAB
M  END
>  <Molecule ChEMBL ID>
CHEMBL3398459

>  <Smiles>
Cc1oc(-c2ccccc2)nc1CCOc1ccc(CC[C@@H]2CN(C(=O)Oc3ccccc3)C[C@@H]2C(=O)O)cc1

>  <IC50_nM>
90

>  <Assay Description>
Binding affinity to PPARgamma (unknown origin) using fluorescein-tagged dual PPARalpha/gamma activator by homogeneous fluorescence polarization binding assay

$$$$
CHEMBL222026
Actelion Java MolfileCreator 2.0

  0  0  0  0  0  0              0 V3000
M  V30 BEGIN CTAB
M  V30 COUNTS 36 40 0 0 0
M  V30 BEGIN ATOM
M  V30 1 S 3.8971 0.0 0.0 0
M  V30 2 O 4.6471 1.299 0.0 0
M  V30 3 O 3.1471 1.299 0.0 0
M  V30 4 N 2.598 -0.75 0.0 0
M  V30 5 C 5.1961 -0.75 0.0 0
M  V30 6 C 1.299 0.0 0.0 0
M  V30 7 C 5.1961 -2.25 0.0 0
M  V30 8 C 6.4951 0.0 0.0 0
M  V30 9 O 1.299 1.5 0.0 0
M  V30 10 C 0.0 -0.75 0.0 0
M  V30 11 C 6.4951 -3.0 0.0 0
M  V30 12 C 7.7942 -0.75 0.0 0
M  V30 13 N -1.3703 -0.1398 0.0 0
M  V30 14 C -0.1567 -2.2417 0.0 0
M  V30 15 C 7.7942 -2.25 0.0 0
M  V30 16 C 6.4951 -4.5 0.0 0
M  V30 17 C -2.374 -1.2546 0.0 0
M  V30 18 C -1.6821 1.3273 0.0 0
M  V30 19 C -1.624 -2.5536 0.0 0
M  V30 20 C 9.0932 -3.0 0.0 0
M  V30 21 C 7.7942 -5.25 0.0 0
M  V30 22 C -3.874 -1.2546 0.0 0
M  V30 23 C -3.1087 1.7908 0.0 0
M  V30 24 C -2.374 -3.8526 0.0 0
M  V30 25 C 9.0932 -4.5 0.0 0
M  V30 26 C -4.624 -2.5536 0.0 0
M  V30 27 C -3.4206 3.258 0.0 0
M  V30 28 C -4.2234 0.7871 0.0 0
M  V30 29 C -3.874 -3.8526 0.0 0
M  V30 30 C -4.8472 3.7216 0.0 0
M  V30 31 C -5.65 1.2506 0.0 0
M  V30 32 C -5.9619 2.7179 0.0 0
M  V30 33 C -5.159 5.1888 0.0 0
M  V30 34 F -6.6263 4.8769 0.0 0
M  V30 35 F -5.4709 6.656 0.0 0
M  V30 36 F -3.6918 5.5006 0.0 0
M  V30 END ATOM
M  V30 BEGIN BOND
M  V30 1 2 1 2
M  V30 2 2 1 3
M  V30 3 1 1 4
M  V30 4 1 1 5
M  V30 5 1 4 6
M  V30 6 2 5 7
M  V30 7 1 5 8
M  V30 8 2 6 9
M  V30 9 1 6 10
M  V30 10 1 7 11
M  V30 11 2 8 12
M  V30 12 1 10 13
M  V30 13 2 10 14
M  V30 14 1 11 15
M  V30 15 2 11 16
M  V30 16 1 13 17
M  V30 17 1 13 18
M  V30 18 1 14 19
M  V30 19 2 15 20
M  V30 20 1 16 21
M  V30 21 1 17 22
M  V30 22 1 18 23
M  V30 23 1 19 24
M  V30 24 1 20 25
M  V30 25 2 22 26
M  V30 26 2 23 27
M  V30 27 1 23 28
M  V30 28 2 24 29
M  V30 29 1 27 30
M  V30 30 2 28 31
M  V30 31 2 30 32
M  V30 32 1 30 33
M  V30 33 1 33 34
M  V30 34 1 33 35
M  V30 35 1 33 36
M  V30 36 1 12 15
M  V30 37 2 17 19
M  V30 38 2 21 25
M  V30 39 1 26 29
M  V30 40 1 31 32
M  V30 END BOND
M  V30 END CTAB
M  END
>  <Molecule ChEMBL ID>
CHEMBL222026

>  <Smiles>
O=C(NS(=O)(=O)c1ccc2ccccc2c1)c1cc2ccccc2n1Cc1cccc(C(F)(F)F)c1

>  <IC50_nM>
90

>  <Assay Description>
Displacement of Fluormone from PPAR gamma

$$$$
CHEMBL254815
Actelion Java MolfileCreator 2.0

  0  0  0  0  0  0              0 V3000
M  V30 BEGIN CTAB
M  V30 COUNTS 37 40 0 0 0
M  V30 BEGIN ATOM
M  V30 1 Cl 9.5262 3.9999 0.0 0
M  V30 2 C 9.5262 2.9999 0.0 0
M  V30 3 C 8.6602 2.4999 0.0 0
M  V30 4 C 10.3923 2.4999 0.0 0
M  V30 5 O 7.7942 2.9999 0.0 0
M  V30 6 C 8.6602 1.4999 0.0 0
M  V30 7 C 10.3923 1.4999 0.0 0
M  V30 8 C 11.2583 2.9999 0.0 0
M  V30 9 C 7.7942 3.9999 0.0 0
M  V30 10 C 7.7942 0.9999 0.0 0
M  V30 11 C 9.5262 0.9999 0.0 0
M  V30 12 C 6.9282 1.4999 0.0 0
M  V30 13 C 7.7942 0.0 0.0 0
M  V30 14 C 9.5262 0.0 0.0 0
M  V30 15 O 6.9282 2.4999 0.0 0
M  V30 16 C 6.0621 0.9999 0.0 0
M  V30 17 C 6.9282 -0.5 0.0 0
M  V30 18 C 8.6602 -0.5 0.0 0
M  V30 19 C 6.0621 0.0 0.0 0
M  V30 20 C 5.1961 1.4999 0.0 0
M  V30 21 O 6.9282 -1.5 0.0 0
M  V30 22 O 8.6602 -1.5 0.0 0
M  V30 23 C 5.1961 -0.5 0.0 0
M  V30 24 C 4.3301 0.9999 0.0 0
M  V30 25 O 5.1961 -1.5 0.0 0
M  V30 26 C 4.3301 0.0 0.0 0
M  V30 27 C 3.4641 1.4999 0.0 0
M  V30 28 C 3.4641 -0.5 0.0 0 CFG=1
M  V30 29 O 2.598 0.9999 0.0 0
M  V30 30 O 3.4641 2.4999 0.0 0
M  V30 31 O 2.598 0.0 0.0 0
M  V30 32 C 3.4641 -1.5 0.0 0
M  V30 33 C 2.598 3.0 0.0 0
M  V30 34 C 1.732 -0.5 0.0 0
M  V30 35 O 1.732 -1.5 0.0 0
M  V30 36 C 0.866 0.0 0.0 0
M  V30 37 O 0.0 -0.5 0.0 0
M  V30 END ATOM
M  V30 BEGIN BOND
M  V30 1 1 1 2
M  V30 2 2 2 3
M  V30 3 1 2 4
M  V30 4 1 3 5
M  V30 5 1 3 6
M  V30 6 2 4 7
M  V30 7 1 4 8
M  V30 8 1 5 9
M  V30 9 2 6 10
M  V30 10 1 6 11
M  V30 11 1 10 12
M  V30 12 1 10 13
M  V30 13 2 11 14
M  V30 14 2 12 15
M  V30 15 1 12 16
M  V30 16 1 13 17
M  V30 17 2 13 18
M  V30 18 2 16 19
M  V30 19 1 16 20
M  V30 20 2 17 21
M  V30 21 1 18 22
M  V30 22 1 19 23
M  V30 23 2 20 24
M  V30 24 1 23 25
M  V30 25 2 23 26
M  V30 26 1 24 27
M  V30 27 1 26 28
M  V30 28 2 27 29
M  V30 29 1 27 30
M  V30 30 1 28 31
M  V30 31 1 28 32 CFG=3
M  V30 32 1 30 33
M  V30 33 1 31 34
M  V30 34 2 34 35
M  V30 35 1 34 36
M  V30 36 1 36 37
M  V30 37 1 7 11
M  V30 38 1 14 18
M  V30 39 1 17 19
M  V30 40 1 24 26
M  V30 END BOND
M  V30 BEGIN COLLECTION
M  V30 MDLV30/STERAC1 ATOMS=(1 28)
M  V30 END COLLECTION
M  V30 END CTAB
M  END
>  <Molecule ChEMBL ID>
CHEMBL254815

>  <Smiles>
COC(=O)c1cc2c(c(O)c1C(C)OC(=O)CO)C(=O)c1c(O)cc3cc(C)c(Cl)c(OC)c3c1C2=O

>  <IC50_nM>
90

>  <Assay Description>
Antagonist activity at human PPARgamma receptor assessed as rosiglitazone-induced receptor activation by alphascreen assay

$$$$
CHEMBL222165
Actelion Java MolfileCreator 2.0

  0  0  0  0  0  0              0 V3000
M  V30 BEGIN CTAB
M  V30 COUNTS 37 40 0 0 0
M  V30 BEGIN ATOM
M  V30 1 S 3.8971 0.0 0.0 0
M  V30 2 O 4.6471 1.299 0.0 0
M  V30 3 O 3.1471 1.299 0.0 0
M  V30 4 N 2.598 -0.75 0.0 0
M  V30 5 C 5.1961 -0.75 0.0 0
M  V30 6 C 1.299 0.0 0.0 0
M  V30 7 C 5.1961 -2.25 0.0 0
M  V30 8 C 6.4951 0.0 0.0 0
M  V30 9 O 1.299 1.5 0.0 0
M  V30 10 C 0.0 -0.75 0.0 0
M  V30 11 C 6.4951 -3.0 0.0 0
M  V30 12 C 7.7942 -0.75 0.0 0
M  V30 13 N -1.3703 -0.1398 0.0 0
M  V30 14 C -0.1567 -2.2417 0.0 0
M  V30 15 C 7.7942 -2.25 0.0 0
M  V30 16 C 6.4951 -4.5 0.0 0
M  V30 17 C -2.374 -1.2546 0.0 0
M  V30 18 C -1.6821 1.3273 0.0 0
M  V30 19 C -1.624 -2.5536 0.0 0
M  V30 20 F 7.9951 -4.5 0.0 0
M  V30 21 F 6.4951 -6.0 0.0 0
M  V30 22 F 4.9951 -4.5 0.0 0
M  V30 23 C -3.874 -1.2546 0.0 0
M  V30 24 C -3.1087 1.7908 0.0 0
M  V30 25 C -2.374 -3.8526 0.0 0
M  V30 26 C -4.624 -2.5536 0.0 0
M  V30 27 C -3.4206 3.258 0.0 0
M  V30 28 C -4.2234 0.7871 0.0 0
M  V30 29 C -3.874 -3.8526 0.0 0
M  V30 30 C -4.8472 3.7216 0.0 0
M  V30 31 C -5.65 1.2506 0.0 0
M  V30 32 O -5.159 5.1888 0.0 0
M  V30 33 C -5.9619 2.7179 0.0 0
M  V30 34 C -6.5856 5.6523 0.0 0
M  V30 35 F -7.0492 4.2257 0.0 0
M  V30 36 F -8.0122 6.1158 0.0 0
M  V30 37 F -6.1221 7.0789 0.0 0
M  V30 END ATOM
M  V30 BEGIN BOND
M  V30 1 2 1 2
M  V30 2 2 1 3
M  V30 3 1 1 4
M  V30 4 1 1 5
M  V30 5 1 4 6
M  V30 6 2 5 7
M  V30 7 1 5 8
M  V30 8 2 6 9
M  V30 9 1 6 10
M  V30 10 1 7 11
M  V30 11 2 8 12
M  V30 12 1 10 13
M  V30 13 2 10 14
M  V30 14 2 11 15
M  V30 15 1 11 16
M  V30 16 1 13 17
M  V30 17 1 13 18
M  V30 18 1 14 19
M  V30 19 1 16 20
M  V30 20 1 16 21
M  V30 21 1 16 22
M  V30 22 1 17 23
M  V30 23 1 18 24
M  V30 24 1 19 25
M  V30 25 2 23 26
M  V30 26 2 24 27
M  V30 27 1 24 28
M  V30 28 2 25 29
M  V30 29 1 27 30
M  V30 30 2 28 31
M  V30 31 1 30 32
M  V30 32 2 30 33
M  V30 33 1 32 34
M  V30 34 1 34 35
M  V30 35 1 34 36
M  V30 36 1 34 37
M  V30 37 1 12 15
M  V30 38 2 17 19
M  V30 39 1 26 29
M  V30 40 1 31 33
M  V30 END BOND
M  V30 END CTAB
M  END
>  <Molecule ChEMBL ID>
CHEMBL222165

>  <Smiles>
O=C(NS(=O)(=O)c1cccc(C(F)(F)F)c1)c1cc2ccccc2n1Cc1cccc(OC(F)(F)F)c1

>  <IC50_nM>
90

>  <Assay Description>
Displacement of Fluormone from PPAR gamma

$$$$
CHEMBL121
Actelion Java MolfileCreator 2.0

  0  0  0  0  0  0              0 V3000
M  V30 BEGIN CTAB
M  V30 COUNTS 25 27 0 0 0
M  V30 BEGIN ATOM
M  V30 1 S 7.8987 0.0054 0.0 0
M  V30 2 C 8.8769 -0.2024 0.0 0
M  V30 3 C 7.7942 0.9999 0.0 0 CFG=2
M  V30 4 O 9.2836 -1.1159 0.0 0
M  V30 5 N 9.3769 0.6635 0.0 0
M  V30 6 C 8.7077 1.4067 0.0 0
M  V30 7 C 6.9282 1.4999 0.0 0
M  V30 8 O 8.9156 2.3848 0.0 0
M  V30 9 C 6.0621 0.9999 0.0 0
M  V30 10 C 5.1961 1.4999 0.0 0
M  V30 11 C 6.0621 0.0 0.0 0
M  V30 12 C 4.3301 0.9999 0.0 0
M  V30 13 C 5.1961 -0.5 0.0 0
M  V30 14 C 4.3301 0.0 0.0 0
M  V30 15 O 3.4641 -0.5 0.0 0
M  V30 16 C 2.598 0.0 0.0 0
M  V30 17 C 1.732 -0.5 0.0 0
M  V30 18 N 0.866 0.0 0.0 0
M  V30 19 C 0.866 1.0 0.0 0
M  V30 20 C 0.0 -0.5 0.0 0
M  V30 21 N 1.732 1.4999 0.0 0
M  V30 22 C 0.0 1.4999 0.0 0
M  V30 23 C 1.732 2.5 0.0 0
M  V30 24 C 0.0 2.5 0.0 0
M  V30 25 C 0.866 3.0 0.0 0
M  V30 END ATOM
M  V30 BEGIN BOND
M  V30 1 1 1 2
M  V30 2 1 1 3
M  V30 3 2 2 4
M  V30 4 1 2 5
M  V30 5 1 3 6
M  V30 6 1 3 7 CFG=1
M  V30 7 2 6 8
M  V30 8 1 7 9
M  V30 9 2 9 10
M  V30 10 1 9 11
M  V30 11 1 10 12
M  V30 12 2 11 13
M  V30 13 2 12 14
M  V30 14 1 14 15
M  V30 15 1 15 16
M  V30 16 1 16 17
M  V30 17 1 17 18
M  V30 18 1 18 19
M  V30 19 1 18 20
M  V30 20 2 19 21
M  V30 21 1 19 22
M  V30 22 1 21 23
M  V30 23 2 22 24
M  V30 24 2 23 25
M  V30 25 1 5 6
M  V30 26 1 13 14
M  V30 27 1 24 25
M  V30 END BOND
M  V30 BEGIN COLLECTION
M  V30 MDLV30/STERAC1 ATOMS=(1 3)
M  V30 END COLLECTION
M  V30 END CTAB
M  END
>  <Molecule ChEMBL ID>
CHEMBL121

>  <Smiles>
CN(CCOc1ccc(CC2SC(=O)NC2=O)cc1)c1ccccn1

>  <IC50_nM>
90

>  <Assay Description>
Displacement of Fluormone from PPAR gamma

$$$$
CHEMBL121
Actelion Java MolfileCreator 2.0

  0  0  0  0  0  0              0 V3000
M  V30 BEGIN CTAB
M  V30 COUNTS 25 27 0 0 0
M  V30 BEGIN ATOM
M  V30 1 S 7.8987 0.0054 0.0 0
M  V30 2 C 8.8769 -0.2024 0.0 0
M  V30 3 C 7.7942 0.9999 0.0 0 CFG=2
M  V30 4 O 9.2836 -1.1159 0.0 0
M  V30 5 N 9.3769 0.6635 0.0 0
M  V30 6 C 8.7077 1.4067 0.0 0
M  V30 7 C 6.9282 1.4999 0.0 0
M  V30 8 O 8.9156 2.3848 0.0 0
M  V30 9 C 6.0621 0.9999 0.0 0
M  V30 10 C 5.1961 1.4999 0.0 0
M  V30 11 C 6.0621 0.0 0.0 0
M  V30 12 C 4.3301 0.9999 0.0 0
M  V30 13 C 5.1961 -0.5 0.0 0
M  V30 14 C 4.3301 0.0 0.0 0
M  V30 15 O 3.4641 -0.5 0.0 0
M  V30 16 C 2.598 0.0 0.0 0
M  V30 17 C 1.732 -0.5 0.0 0
M  V30 18 N 0.866 0.0 0.0 0
M  V30 19 C 0.866 1.0 0.0 0
M  V30 20 C 0.0 -0.5 0.0 0
M  V30 21 N 1.732 1.4999 0.0 0
M  V30 22 C 0.0 1.4999 0.0 0
M  V30 23 C 1.732 2.5 0.0 0
M  V30 24 C 0.0 2.5 0.0 0
M  V30 25 C 0.866 3.0 0.0 0
M  V30 END ATOM
M  V30 BEGIN BOND
M  V30 1 1 1 2
M  V30 2 1 1 3
M  V30 3 2 2 4
M  V30 4 1 2 5
M  V30 5 1 3 6
M  V30 6 1 3 7 CFG=1
M  V30 7 2 6 8
M  V30 8 1 7 9
M  V30 9 2 9 10
M  V30 10 1 9 11
M  V30 11 1 10 12
M  V30 12 2 11 13
M  V30 13 2 12 14
M  V30 14 1 14 15
M  V30 15 1 15 16
M  V30 16 1 16 17
M  V30 17 1 17 18
M  V30 18 1 18 19
M  V30 19 1 18 20
M  V30 20 2 19 21
M  V30 21 1 19 22
M  V30 22 1 21 23
M  V30 23 2 22 24
M  V30 24 2 23 25
M  V30 25 1 5 6
M  V30 26 1 13 14
M  V30 27 1 24 25
M  V30 END BOND
M  V30 BEGIN COLLECTION
M  V30 MDLV30/STERAC1 ATOMS=(1 3)
M  V30 END COLLECTION
M  V30 END CTAB
M  END
>  <Molecule ChEMBL ID>
CHEMBL121

>  <Smiles>
CN(CCOc1ccc(CC2SC(=O)NC2=O)cc1)c1ccccn1

>  <IC50_nM>
90

>  <Assay Description>
Binding affinity to PPARgamma (unknown origin) by lanthascreen TR-FRET assay

$$$$
CHEMBL5277957
Actelion Java MolfileCreator 2.0

  0  0  0  0  0  0              0 V3000
M  V30 BEGIN CTAB
M  V30 COUNTS 30 32 0 0 0
M  V30 BEGIN ATOM
M  V30 1 Cl 6.0621 -1.9999 0.0 0
M  V30 2 C 5.1961 -1.4999 0.0 0
M  V30 3 C 5.1961 -0.5 0.0 0
M  V30 4 C 4.3301 -1.9999 0.0 0
M  V30 5 C 6.0621 0.0 0.0 0
M  V30 6 C 4.3301 0.0 0.0 0
M  V30 7 C 3.4641 -1.5 0.0 0
M  V30 8 O 6.0621 0.9999 0.0 0
M  V30 9 N 6.9282 -0.5 0.0 0
M  V30 10 C 3.4641 -0.5 0.0 0
M  V30 11 F 2.598 -2.0 0.0 0
M  V30 12 C 7.7942 0.0 0.0 0
M  V30 13 C 2.598 0.0 0.0 0
M  V30 14 N 8.6602 -0.5 0.0 0
M  V30 15 C 7.7942 0.9999 0.0 0
M  V30 16 O 2.598 1.0 0.0 0
M  V30 17 N 1.732 -0.5 0.0 0
M  V30 18 C 9.5262 0.0 0.0 0
M  V30 19 C 8.6602 1.4999 0.0 0
M  V30 20 C 6.9282 1.4999 0.0 0
M  V30 21 C 0.866 0.0 0.0 0
M  V30 22 C 9.5262 0.9999 0.0 0
M  V30 23 C 0.0 -0.5 0.0 0
M  V30 24 C -0.866 0.0 0.0 0
M  V30 25 C 0.0 -1.4999 0.0 0
M  V30 26 C -1.732 -0.4999 0.0 0
M  V30 27 C -0.866 -1.9999 0.0 0
M  V30 28 F -2.598 0.0 0.0 0
M  V30 29 C -1.732 -1.4999 0.0 0
M  V30 30 F -2.598 -1.9999 0.0 0
M  V30 END ATOM
M  V30 BEGIN BOND
M  V30 1 1 1 2
M  V30 2 2 2 3
M  V30 3 1 2 4
M  V30 4 1 3 5
M  V30 5 1 3 6
M  V30 6 2 4 7
M  V30 7 2 5 8
M  V30 8 1 5 9
M  V30 9 2 6 10
M  V30 10 1 7 11
M  V30 11 1 9 12
M  V30 12 1 10 13
M  V30 13 2 12 14
M  V30 14 1 12 15
M  V30 15 2 13 16
M  V30 16 1 13 17
M  V30 17 1 14 18
M  V30 18 2 15 19
M  V30 19 1 15 20
M  V30 20 1 17 21
M  V30 21 2 18 22
M  V30 22 1 21 23
M  V30 23 2 23 24
M  V30 24 1 23 25
M  V30 25 1 24 26
M  V30 26 2 25 27
M  V30 27 1 26 28
M  V30 28 2 26 29
M  V30 29 1 29 30
M  V30 30 1 7 10
M  V30 31 1 19 22
M  V30 32 1 27 29
M  V30 END BOND
M  V30 END CTAB
M  END
>  <Molecule ChEMBL ID>
CHEMBL5277957

>  <Smiles>
Cc1cccnc1NC(=O)c1cc(C(=O)NCc2ccc(F)c(F)c2)c(F)cc1Cl

>  <IC50_nM>
91

>  <Assay Description>
Inverse agonist activity at human PPARgamma in human RT112/84 transfected with NLuc-fused FABP4 assessed as reduction in PPARgamma transactivation incubated for 6 to 18 hrs by Nano-Glo luciferase assay

$$$$
CHEMBL441554
Actelion Java MolfileCreator 2.0

  0  0  0  0  0  0              0 V3000
M  V30 BEGIN CTAB
M  V30 COUNTS 38 41 0 0 0
M  V30 BEGIN ATOM
M  V30 1 O 2.598 1.0 0.0 0
M  V30 2 C 2.598 0.0 0.0 0
M  V30 3 O 3.4641 -0.5 0.0 0
M  V30 4 N 1.732 -0.5 0.0 0
M  V30 5 C 4.3301 0.0 0.0 0
M  V30 6 C 0.866 0.0 0.0 0
M  V30 7 C 5.1961 -0.5 0.0 0
M  V30 8 C 0.0 -0.5 0.0 0
M  V30 9 C 5.1961 -1.5 0.0 0
M  V30 10 C 6.0621 0.0 0.0 0
M  V30 11 C -0.866 0.0 0.0 0
M  V30 12 C 0.0 -1.4999 0.0 0
M  V30 13 C 6.0621 -2.0 0.0 0
M  V30 14 C 6.9282 -0.5 0.0 0
M  V30 15 C -1.732 -0.4999 0.0 0
M  V30 16 C -0.866 1.0 0.0 0
M  V30 17 C -0.866 -1.9999 0.0 0
M  V30 18 C 6.9282 -1.5 0.0 0
M  V30 19 C -1.732 -1.4999 0.0 0
M  V30 20 C -1.732 1.5 0.0 0
M  V30 21 O -0.866 -2.9999 0.0 0
M  V30 22 C -1.732 2.5 0.0 0
M  V30 23 C 0.0 -3.4999 0.0 0
M  V30 24 O -0.866 3.0 0.0 0
M  V30 25 O -2.598 3.0 0.0 0
M  V30 26 C 0.0 -4.4999 0.0 0
M  V30 27 C 0.866 -5.0 0.0 0
M  V30 28 N 0.9705 -5.9945 0.0 0
M  V30 29 C 1.7795 -4.5932 0.0 0
M  V30 30 C 1.9487 -6.2024 0.0 0
M  V30 31 O 2.4487 -5.3364 0.0 0
M  V30 32 C 1.9874 -3.6151 0.0 0
M  V30 33 C 2.3554 -7.1159 0.0 0
M  V30 34 C 1.7676 -7.9249 0.0 0
M  V30 35 C 3.3499 -7.2205 0.0 0
M  V30 36 C 2.1743 -8.8385 0.0 0
M  V30 37 C 3.7566 -8.134 0.0 0
M  V30 38 C 3.1689 -8.943 0.0 0
M  V30 END ATOM
M  V30 BEGIN BOND
M  V30 1 2 1 2
M  V30 2 1 2 3
M  V30 3 1 2 4
M  V30 4 1 3 5
M  V30 5 1 4 6
M  V30 6 1 5 7
M  V30 7 1 6 8
M  V30 8 2 7 9
M  V30 9 1 7 10
M  V30 10 2 8 11
M  V30 11 1 8 12
M  V30 12 1 9 13
M  V30 13 2 10 14
M  V30 14 1 11 15
M  V30 15 1 11 16
M  V30 16 2 12 17
M  V30 17 2 13 18
M  V30 18 2 15 19
M  V30 19 1 16 20
M  V30 20 1 17 21
M  V30 21 1 20 22
M  V30 22 1 21 23
M  V30 23 2 22 24
M  V30 24 1 22 25
M  V30 25 1 23 26
M  V30 26 1 26 27
M  V30 27 1 27 28
M  V30 28 2 27 29
M  V30 29 2 28 30
M  V30 30 1 29 31
M  V30 31 1 29 32
M  V30 32 1 30 33
M  V30 33 2 33 34
M  V30 34 1 33 35
M  V30 35 1 34 36
M  V30 36 2 35 37
M  V30 37 2 36 38
M  V30 38 1 14 18
M  V30 39 1 17 19
M  V30 40 1 30 31
M  V30 41 1 37 38
M  V30 END BOND
M  V30 END CTAB
M  END
>  <Molecule ChEMBL ID>
CHEMBL441554

>  <Smiles>
Cc1oc(-c2ccccc2)nc1CCOc1ccc(CCC(=O)O)c(CNC(=O)OCc2ccccc2)c1

>  <IC50_nM>
91

>  <Assay Description>
Displacement of [3H]2-methyl-2-(4-{3-propyl-(5-pyridin-2yl-thiophene-2-sulfonyl)-amino]-pro-pyl}-phenoxy)-propionic acid from human PPARgamma

$$$$
CHEMBL24038
Actelion Java MolfileCreator 2.0

  0  0  0  0  0  0              0 V3000
M  V30 BEGIN CTAB
M  V30 COUNTS 31 34 0 0 0
M  V30 BEGIN ATOM
M  V30 1 O 6.4951 0.0 0.0 0
M  V30 2 C 5.1961 -0.75 0.0 0
M  V30 3 O 5.1961 -2.25 0.0 0
M  V30 4 C 3.8971 0.0 0.0 0 CFG=1
M  V30 5 O 2.598 -0.75 0.0 0
M  V30 6 C 3.8971 1.5 0.0 0
M  V30 7 C 1.299 0.0 0.0 0
M  V30 8 C 2.598 2.25 0.0 0
M  V30 9 C 0.0 -0.75 0.0 0
M  V30 10 C 2.598 3.75 0.0 0
M  V30 11 C 1.299 1.5 0.0 0
M  V30 12 C 1.299 4.5 0.0 0
M  V30 13 C 0.0 2.25 0.0 0
M  V30 14 C 0.0 3.75 0.0 0
M  V30 15 O -1.299 4.5 0.0 0
M  V30 16 C -2.598 3.75 0.0 0
M  V30 17 C -3.8971 4.5 0.0 0
M  V30 18 N -5.1961 3.75 0.0 0
M  V30 19 C -6.4951 4.5 0.0 0
M  V30 20 C -5.1961 2.25 0.0 0
M  V30 21 C -7.7942 3.75 0.0 0
M  V30 22 C -6.4951 6.0 0.0 0
M  V30 23 C -6.4951 1.5 0.0 0
M  V30 24 C -3.8971 1.5 0.0 0
M  V30 25 O -7.7942 2.25 0.0 0
M  V30 26 C -9.0932 4.5 0.0 0
M  V30 27 C -7.7942 6.75 0.0 0
M  V30 28 C -6.4951 0.0 0.0 0
M  V30 29 C -3.8971 0.0 0.0 0
M  V30 30 C -9.0932 6.0 0.0 0
M  V30 31 C -5.1961 -0.7499 0.0 0
M  V30 END ATOM
M  V30 BEGIN BOND
M  V30 1 2 1 2
M  V30 2 1 2 3
M  V30 3 1 2 4
M  V30 4 1 4 5 CFG=1
M  V30 5 1 4 6
M  V30 6 1 5 7
M  V30 7 1 6 8
M  V30 8 1 7 9
M  V30 9 2 8 10
M  V30 10 1 8 11
M  V30 11 1 10 12
M  V30 12 2 11 13
M  V30 13 2 12 14
M  V30 14 1 14 15
M  V30 15 1 15 16
M  V30 16 1 16 17
M  V30 17 1 17 18
M  V30 18 1 18 19
M  V30 19 1 18 20
M  V30 20 2 19 21
M  V30 21 1 19 22
M  V30 22 2 20 23
M  V30 23 1 20 24
M  V30 24 1 21 25
M  V30 25 1 21 26
M  V30 26 2 22 27
M  V30 27 1 23 28
M  V30 28 2 24 29
M  V30 29 2 26 30
M  V30 30 2 28 31
M  V30 31 1 13 14
M  V30 32 1 23 25
M  V30 33 1 27 30
M  V30 34 1 29 31
M  V30 END BOND
M  V30 BEGIN COLLECTION
M  V30 MDLV30/STEABS ATOMS=(1 4)
M  V30 END COLLECTION
M  V30 END CTAB
M  END
>  <Molecule ChEMBL ID>
CHEMBL24038

>  <Smiles>
CCO[C@@H](Cc1ccc(OCCN2c3ccccc3Oc3ccccc32)cc1)C(=O)O

>  <IC50_nM>
92

>  <Assay Description>
Receptor binding affinity to human Peroxisome proliferator activated receptor gamma against [3H]ragalitazar radioligand

$$$$
CHEMBL121
Actelion Java MolfileCreator 2.0

  0  0  0  0  0  0              0 V3000
M  V30 BEGIN CTAB
M  V30 COUNTS 25 27 0 0 0
M  V30 BEGIN ATOM
M  V30 1 S 7.8987 0.0054 0.0 0
M  V30 2 C 8.8769 -0.2024 0.0 0
M  V30 3 C 7.7942 0.9999 0.0 0 CFG=2
M  V30 4 O 9.2836 -1.1159 0.0 0
M  V30 5 N 9.3769 0.6635 0.0 0
M  V30 6 C 8.7077 1.4067 0.0 0
M  V30 7 C 6.9282 1.4999 0.0 0
M  V30 8 O 8.9156 2.3848 0.0 0
M  V30 9 C 6.0621 0.9999 0.0 0
M  V30 10 C 5.1961 1.4999 0.0 0
M  V30 11 C 6.0621 0.0 0.0 0
M  V30 12 C 4.3301 0.9999 0.0 0
M  V30 13 C 5.1961 -0.5 0.0 0
M  V30 14 C 4.3301 0.0 0.0 0
M  V30 15 O 3.4641 -0.5 0.0 0
M  V30 16 C 2.598 0.0 0.0 0
M  V30 17 C 1.732 -0.5 0.0 0
M  V30 18 N 0.866 0.0 0.0 0
M  V30 19 C 0.866 1.0 0.0 0
M  V30 20 C 0.0 -0.5 0.0 0
M  V30 21 N 1.732 1.4999 0.0 0
M  V30 22 C 0.0 1.4999 0.0 0
M  V30 23 C 1.732 2.5 0.0 0
M  V30 24 C 0.0 2.5 0.0 0
M  V30 25 C 0.866 3.0 0.0 0
M  V30 END ATOM
M  V30 BEGIN BOND
M  V30 1 1 1 2
M  V30 2 1 1 3
M  V30 3 2 2 4
M  V30 4 1 2 5
M  V30 5 1 3 6
M  V30 6 1 3 7 CFG=1
M  V30 7 2 6 8
M  V30 8 1 7 9
M  V30 9 2 9 10
M  V30 10 1 9 11
M  V30 11 1 10 12
M  V30 12 2 11 13
M  V30 13 2 12 14
M  V30 14 1 14 15
M  V30 15 1 15 16
M  V30 16 1 16 17
M  V30 17 1 17 18
M  V30 18 1 18 19
M  V30 19 1 18 20
M  V30 20 2 19 21
M  V30 21 1 19 22
M  V30 22 1 21 23
M  V30 23 2 22 24
M  V30 24 2 23 25
M  V30 25 1 5 6
M  V30 26 1 13 14
M  V30 27 1 24 25
M  V30 END BOND
M  V30 BEGIN COLLECTION
M  V30 MDLV30/STERAC1 ATOMS=(1 3)
M  V30 END COLLECTION
M  V30 END CTAB
M  END
>  <Molecule ChEMBL ID>
CHEMBL121

>  <Smiles>
CN(CCOc1ccc(CC2SC(=O)NC2=O)cc1)c1ccccn1

>  <IC50_nM>
92

>  <Assay Description>
Displacement of [3H]rosiglitazone from human PPAR gamma by SPA assay

$$$$
CHEMBL121
Actelion Java MolfileCreator 2.0

  0  0  0  0  0  0              0 V3000
M  V30 BEGIN CTAB
M  V30 COUNTS 25 27 0 0 0
M  V30 BEGIN ATOM
M  V30 1 S 7.8987 0.0054 0.0 0
M  V30 2 C 8.8769 -0.2024 0.0 0
M  V30 3 C 7.7942 0.9999 0.0 0 CFG=2
M  V30 4 O 9.2836 -1.1159 0.0 0
M  V30 5 N 9.3769 0.6635 0.0 0
M  V30 6 C 8.7077 1.4067 0.0 0
M  V30 7 C 6.9282 1.4999 0.0 0
M  V30 8 O 8.9156 2.3848 0.0 0
M  V30 9 C 6.0621 0.9999 0.0 0
M  V30 10 C 5.1961 1.4999 0.0 0
M  V30 11 C 6.0621 0.0 0.0 0
M  V30 12 C 4.3301 0.9999 0.0 0
M  V30 13 C 5.1961 -0.5 0.0 0
M  V30 14 C 4.3301 0.0 0.0 0
M  V30 15 O 3.4641 -0.5 0.0 0
M  V30 16 C 2.598 0.0 0.0 0
M  V30 17 C 1.732 -0.5 0.0 0
M  V30 18 N 0.866 0.0 0.0 0
M  V30 19 C 0.866 1.0 0.0 0
M  V30 20 C 0.0 -0.5 0.0 0
M  V30 21 N 1.732 1.4999 0.0 0
M  V30 22 C 0.0 1.4999 0.0 0
M  V30 23 C 1.732 2.5 0.0 0
M  V30 24 C 0.0 2.5 0.0 0
M  V30 25 C 0.866 3.0 0.0 0
M  V30 END ATOM
M  V30 BEGIN BOND
M  V30 1 1 1 2
M  V30 2 1 1 3
M  V30 3 2 2 4
M  V30 4 1 2 5
M  V30 5 1 3 6
M  V30 6 1 3 7 CFG=1
M  V30 7 2 6 8
M  V30 8 1 7 9
M  V30 9 2 9 10
M  V30 10 1 9 11
M  V30 11 1 10 12
M  V30 12 2 11 13
M  V30 13 2 12 14
M  V30 14 1 14 15
M  V30 15 1 15 16
M  V30 16 1 16 17
M  V30 17 1 17 18
M  V30 18 1 18 19
M  V30 19 1 18 20
M  V30 20 2 19 21
M  V30 21 1 19 22
M  V30 22 1 21 23
M  V30 23 2 22 24
M  V30 24 2 23 25
M  V30 25 1 5 6
M  V30 26 1 13 14
M  V30 27 1 24 25
M  V30 END BOND
M  V30 BEGIN COLLECTION
M  V30 MDLV30/STERAC1 ATOMS=(1 3)
M  V30 END COLLECTION
M  V30 END CTAB
M  END
>  <Molecule ChEMBL ID>
CHEMBL121

>  <Smiles>
CN(CCOc1ccc(CC2SC(=O)NC2=O)cc1)c1ccccn1

>  <IC50_nM>
92

>  <Assay Description>
Displacement of [3H]rosiglitazone from human PPAR gamma by SPA assay

$$$$
CHEMBL1947140
Actelion Java MolfileCreator 2.0

  0  0  0  0  0  0              0 V3000
M  V30 BEGIN CTAB
M  V30 COUNTS 40 45 0 0 0
M  V30 BEGIN ATOM
M  V30 1 F 3.2907 2.3257 0.0 0
M  V30 2 C 4.2417 2.0167 0.0 0
M  V30 3 F 4.5507 2.9678 0.0 0
M  V30 4 F 5.1928 1.7077 0.0 0
M  V30 5 C 3.9327 1.0657 0.0 0
M  V30 6 C 2.9546 0.8577 0.0 0
M  V30 7 C 4.6018 0.3225 0.0 0
M  V30 8 C 2.6455 -0.0932 0.0 0
M  V30 9 C 4.2928 -0.6284 0.0 0
M  V30 10 N 1.732 -0.5 0.0 0
M  V30 11 C 3.3147 -0.8364 0.0 0
M  V30 12 C 1.8365 -1.4945 0.0 0
M  V30 13 C 0.866 0.0 0.0 0
M  V30 14 N 2.8147 -1.7024 0.0 0
M  V30 15 O 1.0934 -2.1636 0.0 0
M  V30 16 C 0.0 -0.5 0.0 0
M  V30 17 C 3.2214 -2.6159 0.0 0
M  V30 18 C -0.866 0.0 0.0 0
M  V30 19 C 0.0 -1.4999 0.0 0
M  V30 20 N 2.7214 -3.482 0.0 0
M  V30 21 C 4.1996 -2.8238 0.0 0
M  V30 22 C -1.732 -0.4999 0.0 0
M  V30 23 C -0.866 -1.9999 0.0 0
M  V30 24 O 3.3905 -4.2251 0.0 0
M  V30 25 C 4.3041 -3.8184 0.0 0
M  V30 26 C 5.0086 -2.2361 0.0 0
M  V30 27 C -1.732 -1.4999 0.0 0
M  V30 28 C -2.598 0.0 0.0 0 CFG=1
M  V30 29 C 5.2176 -4.2251 0.0 0
M  V30 30 C 5.9221 -2.6428 0.0 0
M  V30 31 O -2.7026 0.9945 0.0 0
M  V30 32 C -3.5116 -0.4067 0.0 0
M  V30 33 C -2.6504 -0.9986 0.0 0
M  V30 34 C 6.0267 -3.6373 0.0 0
M  V30 35 C -3.6807 1.2024 0.0 0
M  V30 36 O -3.7195 -1.3848 0.0 0
M  V30 37 N -4.1807 0.3364 0.0 0
M  V30 38 O 6.9402 -4.0441 0.0 0
M  V30 39 O -4.0874 2.1159 0.0 0
M  V30 40 C 7.7492 -3.4563 0.0 0
M  V30 END ATOM
M  V30 BEGIN BOND
M  V30 1 1 1 2
M  V30 2 1 2 3
M  V30 3 1 2 4
M  V30 4 1 2 5
M  V30 5 2 5 6
M  V30 6 1 5 7
M  V30 7 1 6 8
M  V30 8 2 7 9
M  V30 9 1 8 10
M  V30 10 2 8 11
M  V30 11 1 10 12
M  V30 12 1 10 13
M  V30 13 1 11 14
M  V30 14 2 12 15
M  V30 15 1 13 16
M  V30 16 1 14 17
M  V30 17 2 16 18
M  V30 18 1 16 19
M  V30 19 2 17 20
M  V30 20 1 17 21
M  V30 21 1 18 22
M  V30 22 2 19 23
M  V30 23 1 20 24
M  V30 24 2 21 25
M  V30 25 1 21 26
M  V30 26 2 22 27
M  V30 27 1 22 28
M  V30 28 1 25 29
M  V30 29 2 26 30
M  V30 30 1 28 31
M  V30 31 1 28 32
M  V30 32 1 28 33 CFG=1
M  V30 33 2 29 34
M  V30 34 1 31 35
M  V30 35 2 32 36
M  V30 36 1 32 37
M  V30 37 1 34 38
M  V30 38 2 35 39
M  V30 39 1 38 40
M  V30 40 1 9 11
M  V30 41 1 12 14
M  V30 42 1 23 27
M  V30 43 1 24 25
M  V30 44 1 30 34
M  V30 45 1 35 37
M  V30 END BOND
M  V30 BEGIN COLLECTION
M  V30 MDLV30/STEABS ATOMS=(1 28)
M  V30 END COLLECTION
M  V30 END CTAB
M  END
>  <Molecule ChEMBL ID>
CHEMBL1947140

>  <Smiles>
COc1ccc2c(-n3c(=O)n(Cc4cccc([C@@]5(C)OC(=O)NC5=O)c4)c4cc(C(F)(F)F)ccc43)noc2c1

>  <IC50_nM>
93

>  <Assay Description>
Binding affinity to human PPARgamma by scintillation proximity assay

$$$$
CHEMBL278994
Actelion Java MolfileCreator 2.0

  0  0  0  0  0  0              0 V3000
M  V30 BEGIN CTAB
M  V30 COUNTS 34 37 0 0 0
M  V30 BEGIN ATOM
M  V30 1 Cl 9.0932 1.5 0.0 0
M  V30 2 C 9.0932 0.0 0.0 0
M  V30 3 C 7.7942 -0.75 0.0 0
M  V30 4 C 10.3923 -0.7499 0.0 0
M  V30 5 S 6.4951 0.0 0.0 0
M  V30 6 C 7.7942 -2.25 0.0 0
M  V30 7 C 10.3923 -2.2499 0.0 0
M  V30 8 C 5.1961 -0.75 0.0 0
M  V30 9 C 9.0932 -2.9999 0.0 0
M  V30 10 C 11.6913 -2.9999 0.0 0
M  V30 11 C 3.8971 0.0 0.0 0
M  V30 12 C 11.6913 -4.4999 0.0 0
M  V30 13 C 2.598 -0.75 0.0 0
M  V30 14 O 10.3923 -5.25 0.0 0
M  V30 15 O 12.9903 -5.2499 0.0 0
M  V30 16 O 1.299 0.0 0.0 0
M  V30 17 C 0.0 -0.75 0.0 0
M  V30 18 C -1.299 0.0 0.0 0
M  V30 19 C 0.0 -2.25 0.0 0
M  V30 20 C -2.598 -0.7499 0.0 0
M  V30 21 C -1.299 1.5 0.0 0
M  V30 22 C -1.299 -2.9999 0.0 0
M  V30 23 O -4.0246 -0.2864 0.0 0
M  V30 24 C -2.598 -2.2499 0.0 0
M  V30 25 C 0.0 2.25 0.0 0
M  V30 26 C -4.9063 -1.4999 0.0 0
M  V30 27 C -4.0246 -2.7135 0.0 0
M  V30 28 C 0.0 3.75 0.0 0
M  V30 29 C -4.4881 -4.1401 0.0 0
M  V30 30 C -5.9554 -4.4519 0.0 0
M  V30 31 C -3.4844 -5.2548 0.0 0
M  V30 32 C -6.4189 -5.8785 0.0 0
M  V30 33 C -3.948 -6.6814 0.0 0
M  V30 34 C -5.4152 -6.9932 0.0 0
M  V30 END ATOM
M  V30 BEGIN BOND
M  V30 1 1 1 2
M  V30 2 2 2 3
M  V30 3 1 2 4
M  V30 4 1 3 5
M  V30 5 1 3 6
M  V30 6 2 4 7
M  V30 7 1 5 8
M  V30 8 2 6 9
M  V30 9 1 7 10
M  V30 10 1 8 11
M  V30 11 1 10 12
M  V30 12 1 11 13
M  V30 13 2 12 14
M  V30 14 1 12 15
M  V30 15 1 13 16
M  V30 16 1 16 17
M  V30 17 2 17 18
M  V30 18 1 17 19
M  V30 19 1 18 20
M  V30 20 1 18 21
M  V30 21 2 19 22
M  V30 22 1 20 23
M  V30 23 2 20 24
M  V30 24 1 21 25
M  V30 25 1 23 26
M  V30 26 1 24 27
M  V30 27 1 25 28
M  V30 28 1 27 29
M  V30 29 2 29 30
M  V30 30 1 29 31
M  V30 31 1 30 32
M  V30 32 2 31 33
M  V30 33 2 32 34
M  V30 34 1 7 9
M  V30 35 1 22 24
M  V30 36 2 26 27
M  V30 37 1 33 34
M  V30 END BOND
M  V30 END CTAB
M  END
>  <Molecule ChEMBL ID>
CHEMBL278994

>  <Smiles>
CCCc1c(OCCCSc2ccc(CC(=O)O)cc2Cl)ccc2c(-c3ccccc3)coc12

>  <IC50_nM>
93.97

>  <Assay Description>
Agonist activity at PPARgamma

$$$$
CHEMBL5287868
Actelion Java MolfileCreator 2.0

  0  0  0  0  0  0              0 V3000
M  V30 BEGIN CTAB
M  V30 COUNTS 27 29 0 0 0
M  V30 BEGIN ATOM
M  V30 1 Cl 6.0621 -1.9999 0.0 0
M  V30 2 C 5.1961 -1.4999 0.0 0
M  V30 3 C 5.1961 -0.5 0.0 0
M  V30 4 C 4.3301 -1.9999 0.0 0
M  V30 5 C 6.0621 0.0 0.0 0
M  V30 6 C 4.3301 0.0 0.0 0
M  V30 7 C 3.4641 -1.5 0.0 0
M  V30 8 O 6.0621 0.9999 0.0 0
M  V30 9 N 6.9282 -0.5 0.0 0
M  V30 10 C 3.4641 -0.5 0.0 0
M  V30 11 F 2.598 -2.0 0.0 0
M  V30 12 C 7.7942 0.0 0.0 0
M  V30 13 C 2.598 0.0 0.0 0
M  V30 14 C 8.6602 -0.5 0.0 0
M  V30 15 C 7.7942 0.9999 0.0 0
M  V30 16 O 2.598 1.0 0.0 0
M  V30 17 N 1.732 -0.5 0.0 0
M  V30 18 C 9.5262 0.0 0.0 0
M  V30 19 C 8.6602 1.4999 0.0 0
M  V30 20 C 0.866 0.0 0.0 0
M  V30 21 C 9.5262 0.9999 0.0 0
M  V30 22 C 0.0 -0.5 0.0 0
M  V30 23 C -0.866 0.0 0.0 0
M  V30 24 C 0.0 -1.4999 0.0 0
M  V30 25 C -1.732 -0.4999 0.0 0
M  V30 26 C -0.866 -1.9999 0.0 0
M  V30 27 C -1.732 -1.4999 0.0 0
M  V30 END ATOM
M  V30 BEGIN BOND
M  V30 1 1 1 2
M  V30 2 2 2 3
M  V30 3 1 2 4
M  V30 4 1 3 5
M  V30 5 1 3 6
M  V30 6 2 4 7
M  V30 7 2 5 8
M  V30 8 1 5 9
M  V30 9 2 6 10
M  V30 10 1 7 11
M  V30 11 1 9 12
M  V30 12 1 10 13
M  V30 13 2 12 14
M  V30 14 1 12 15
M  V30 15 2 13 16
M  V30 16 1 13 17
M  V30 17 1 14 18
M  V30 18 2 15 19
M  V30 19 1 17 20
M  V30 20 2 18 21
M  V30 21 1 20 22
M  V30 22 2 22 23
M  V30 23 1 22 24
M  V30 24 1 23 25
M  V30 25 2 24 26
M  V30 26 2 25 27
M  V30 27 1 7 10
M  V30 28 1 19 21
M  V30 29 1 26 27
M  V30 END BOND
M  V30 END CTAB
M  END
>  <Molecule ChEMBL ID>
CHEMBL5287868

>  <Smiles>
O=C(NCc1ccccc1)c1cc(C(=O)Nc2ccccc2)c(Cl)cc1F

>  <IC50_nM>
94

>  <Assay Description>
Inverse agonist activity at human PPARgamma in human RT112/84 transfected with NLuc-fused FABP4 assessed as reduction in PPARgamma transactivation incubated for 6 to 18 hrs by Nano-Glo luciferase assay

$$$$
CHEMBL278994
Actelion Java MolfileCreator 2.0

  0  0  0  0  0  0              0 V3000
M  V30 BEGIN CTAB
M  V30 COUNTS 34 37 0 0 0
M  V30 BEGIN ATOM
M  V30 1 Cl 9.0932 1.5 0.0 0
M  V30 2 C 9.0932 0.0 0.0 0
M  V30 3 C 7.7942 -0.75 0.0 0
M  V30 4 C 10.3923 -0.7499 0.0 0
M  V30 5 S 6.4951 0.0 0.0 0
M  V30 6 C 7.7942 -2.25 0.0 0
M  V30 7 C 10.3923 -2.2499 0.0 0
M  V30 8 C 5.1961 -0.75 0.0 0
M  V30 9 C 9.0932 -2.9999 0.0 0
M  V30 10 C 11.6913 -2.9999 0.0 0
M  V30 11 C 3.8971 0.0 0.0 0
M  V30 12 C 11.6913 -4.4999 0.0 0
M  V30 13 C 2.598 -0.75 0.0 0
M  V30 14 O 10.3923 -5.25 0.0 0
M  V30 15 O 12.9903 -5.2499 0.0 0
M  V30 16 O 1.299 0.0 0.0 0
M  V30 17 C 0.0 -0.75 0.0 0
M  V30 18 C -1.299 0.0 0.0 0
M  V30 19 C 0.0 -2.25 0.0 0
M  V30 20 C -2.598 -0.7499 0.0 0
M  V30 21 C -1.299 1.5 0.0 0
M  V30 22 C -1.299 -2.9999 0.0 0
M  V30 23 O -4.0246 -0.2864 0.0 0
M  V30 24 C -2.598 -2.2499 0.0 0
M  V30 25 C 0.0 2.25 0.0 0
M  V30 26 C -4.9063 -1.4999 0.0 0
M  V30 27 C -4.0246 -2.7135 0.0 0
M  V30 28 C 0.0 3.75 0.0 0
M  V30 29 C -4.4881 -4.1401 0.0 0
M  V30 30 C -5.9554 -4.4519 0.0 0
M  V30 31 C -3.4844 -5.2548 0.0 0
M  V30 32 C -6.4189 -5.8785 0.0 0
M  V30 33 C -3.948 -6.6814 0.0 0
M  V30 34 C -5.4152 -6.9932 0.0 0
M  V30 END ATOM
M  V30 BEGIN BOND
M  V30 1 1 1 2
M  V30 2 2 2 3
M  V30 3 1 2 4
M  V30 4 1 3 5
M  V30 5 1 3 6
M  V30 6 2 4 7
M  V30 7 1 5 8
M  V30 8 2 6 9
M  V30 9 1 7 10
M  V30 10 1 8 11
M  V30 11 1 10 12
M  V30 12 1 11 13
M  V30 13 2 12 14
M  V30 14 1 12 15
M  V30 15 1 13 16
M  V30 16 1 16 17
M  V30 17 2 17 18
M  V30 18 1 17 19
M  V30 19 1 18 20
M  V30 20 1 18 21
M  V30 21 2 19 22
M  V30 22 1 20 23
M  V30 23 2 20 24
M  V30 24 1 21 25
M  V30 25 1 23 26
M  V30 26 1 24 27
M  V30 27 1 25 28
M  V30 28 1 27 29
M  V30 29 2 29 30
M  V30 30 1 29 31
M  V30 31 1 30 32
M  V30 32 2 31 33
M  V30 33 2 32 34
M  V30 34 1 7 9
M  V30 35 1 22 24
M  V30 36 2 26 27
M  V30 37 1 33 34
M  V30 END BOND
M  V30 END CTAB
M  END
>  <Molecule ChEMBL ID>
CHEMBL278994

>  <Smiles>
CCCc1c(OCCCSc2ccc(CC(=O)O)cc2Cl)ccc2c(-c3ccccc3)coc12

>  <IC50_nM>
94

>  <Assay Description>
In vitro binding affinity for human PPAR gamma in SPA

$$$$
CHEMBL3699432
Actelion Java MolfileCreator 2.0

  0  0  0  0  0  0              0 V3000
M  V30 BEGIN CTAB
M  V30 COUNTS 44 49 0 0 0
M  V30 BEGIN ATOM
M  V30 1 O 10.212 -3.0316 0.0 0
M  V30 2 C 10.8811 -3.7748 0.0 0
M  V30 3 N 11.8592 -3.5669 0.0 0
M  V30 4 C 10.5721 -4.7258 0.0 0
M  V30 5 C 12.5284 -4.31 0.0 0
M  V30 6 C 9.5939 -4.9337 0.0 0
M  V30 7 C 11.2412 -5.469 0.0 0
M  V30 8 C 13.4794 -4.619 0.0 0
M  V30 9 C 12.7363 -5.2882 0.0 0
M  V30 10 C 8.9248 -4.1906 0.0 0
M  V30 11 C 9.2849 -5.8848 0.0 0
M  V30 12 C 10.9322 -6.42 0.0 0
M  V30 13 C 9.2338 -3.2395 0.0 0
M  V30 14 C 7.9466 -4.3985 0.0 0
M  V30 15 C 9.954 -6.6279 0.0 0
M  V30 16 C 8.5647 -2.4964 0.0 0
M  V30 17 C 7.2775 -3.6554 0.0 0
M  V30 18 C 7.5865 -2.7043 0.0 0
M  V30 19 C 6.9174 -1.9612 0.0 0
M  V30 20 N 5.9392 -2.1691 0.0 0
M  V30 21 C 5.1961 -1.4999 0.0 0
M  V30 22 C 5.5325 -3.0826 0.0 0
M  V30 23 C 4.3301 -1.9999 0.0 0
M  V30 24 C 5.1961 -0.4999 0.0 0
M  V30 25 C 4.538 -2.9781 0.0 0
M  V30 26 C 6.0325 -3.9487 0.0 0
M  V30 27 C 3.4641 -1.5 0.0 0
M  V30 28 C 4.3301 0.0 0.0 0
M  V30 29 C 3.8689 -3.7212 0.0 0
M  V30 30 C 3.4641 -0.5 0.0 0
M  V30 31 C 2.598 0.0 0.0 0
M  V30 32 O 2.598 1.0 0.0 0
M  V30 33 N 1.732 -0.5 0.0 0
M  V30 34 C 0.866 0.0 0.0 0 CFG=2
M  V30 35 C 0.866 1.0 0.0 0
M  V30 36 C 0.0 -0.5 0.0 0
M  V30 37 C 1.732 1.5 0.0 0
M  V30 38 C 0.0 1.4999 0.0 0
M  V30 39 C 1.732 2.5 0.0 0
M  V30 40 C 0.0 2.5 0.0 0
M  V30 41 C 0.866 2.9999 0.0 0
M  V30 42 C 2.598 3.0 0.0 0
M  V30 43 C 3.4641 2.5 0.0 0
M  V30 44 C 2.598 4.0 0.0 0
M  V30 END ATOM
M  V30 BEGIN BOND
M  V30 1 2 1 2
M  V30 2 1 2 3
M  V30 3 1 2 4
M  V30 4 1 3 5
M  V30 5 2 4 6
M  V30 6 1 4 7
M  V30 7 1 5 8
M  V30 8 1 5 9
M  V30 9 1 6 10
M  V30 10 1 6 11
M  V30 11 2 7 12
M  V30 12 2 10 13
M  V30 13 1 10 14
M  V30 14 2 11 15
M  V30 15 1 13 16
M  V30 16 2 14 17
M  V30 17 2 16 18
M  V30 18 1 18 19
M  V30 19 1 19 20
M  V30 20 1 20 21
M  V30 21 1 20 22
M  V30 22 2 21 23
M  V30 23 1 21 24
M  V30 24 2 22 25
M  V30 25 1 22 26
M  V30 26 1 23 27
M  V30 27 2 24 28
M  V30 28 1 25 29
M  V30 29 2 27 30
M  V30 30 1 30 31
M  V30 31 2 31 32
M  V30 32 1 31 33
M  V30 33 1 33 34
M  V30 34 1 34 35
M  V30 35 1 34 36 CFG=1
M  V30 36 2 35 37
M  V30 37 1 35 38
M  V30 38 1 37 39
M  V30 39 2 38 40
M  V30 40 2 39 41
M  V30 41 1 39 42
M  V30 42 1 42 43
M  V30 43 1 42 44
M  V30 44 1 8 9
M  V30 45 1 12 15
M  V30 46 1 17 18
M  V30 47 1 23 25
M  V30 48 1 28 30
M  V30 49 1 40 41
M  V30 END BOND
M  V30 BEGIN COLLECTION
M  V30 MDLV30/STEABS ATOMS=(1 34)
M  V30 END COLLECTION
M  V30 END CTAB
M  END
>  <Molecule ChEMBL ID>
CHEMBL3699432

>  <Smiles>
Cc1c(C)n(Cc2ccc(-c3ccccc3C(=O)NC3CC3)cc2)c2ccc(C(=O)N[C@@H](C)c3cccc(C(C)C)c3)cc12

>  <IC50_nM>
94

>  <Assay Description>
Lanthascreen Competitive Binding Assay: The assay was performed according to manufacturer protocol. A mixture of nM GST-PPARG-LBD, 5 nM Tb-GST-antibody, 5 nM Fluormone Pan-PPAR Green, and serial dilutions of the experimental compound, beginning at 10 ׬M downwards, was added to wells of black 384-well low-volume plates (Greiner) to a total volume of 18 ׬L. All dilutions were made in TR-FRET assay buffer C. DMSO at 2% final concentration was used as a no-ligand control. Experiment was performed in triplicate, and incubated for 2 hours in the dark prior to assay read in Perkin Elmer ViewLux ultra HTS microplate reader. FRET signal was measured by excitation at 340 nm and emission at 520 nm for fluorescein and 490 nm for terbium. Fold change over DMSO was calculated using GraphPad Prism Software (La Jolla, Calif.) by calculating 520 nm/490 nm ratio. Graphs were plotted as fold change of FRET signal for compound treatment over DMSO-only control.

$$$$
CHEMBL278994
Actelion Java MolfileCreator 2.0

  0  0  0  0  0  0              0 V3000
M  V30 BEGIN CTAB
M  V30 COUNTS 34 37 0 0 0
M  V30 BEGIN ATOM
M  V30 1 Cl 9.0932 1.5 0.0 0
M  V30 2 C 9.0932 0.0 0.0 0
M  V30 3 C 7.7942 -0.75 0.0 0
M  V30 4 C 10.3923 -0.7499 0.0 0
M  V30 5 S 6.4951 0.0 0.0 0
M  V30 6 C 7.7942 -2.25 0.0 0
M  V30 7 C 10.3923 -2.2499 0.0 0
M  V30 8 C 5.1961 -0.75 0.0 0
M  V30 9 C 9.0932 -2.9999 0.0 0
M  V30 10 C 11.6913 -2.9999 0.0 0
M  V30 11 C 3.8971 0.0 0.0 0
M  V30 12 C 11.6913 -4.4999 0.0 0
M  V30 13 C 2.598 -0.75 0.0 0
M  V30 14 O 10.3923 -5.25 0.0 0
M  V30 15 O 12.9903 -5.2499 0.0 0
M  V30 16 O 1.299 0.0 0.0 0
M  V30 17 C 0.0 -0.75 0.0 0
M  V30 18 C -1.299 0.0 0.0 0
M  V30 19 C 0.0 -2.25 0.0 0
M  V30 20 C -2.598 -0.7499 0.0 0
M  V30 21 C -1.299 1.5 0.0 0
M  V30 22 C -1.299 -2.9999 0.0 0
M  V30 23 O -4.0246 -0.2864 0.0 0
M  V30 24 C -2.598 -2.2499 0.0 0
M  V30 25 C 0.0 2.25 0.0 0
M  V30 26 C -4.9063 -1.4999 0.0 0
M  V30 27 C -4.0246 -2.7135 0.0 0
M  V30 28 C 0.0 3.75 0.0 0
M  V30 29 C -4.4881 -4.1401 0.0 0
M  V30 30 C -5.9554 -4.4519 0.0 0
M  V30 31 C -3.4844 -5.2548 0.0 0
M  V30 32 C -6.4189 -5.8785 0.0 0
M  V30 33 C -3.948 -6.6814 0.0 0
M  V30 34 C -5.4152 -6.9932 0.0 0
M  V30 END ATOM
M  V30 BEGIN BOND
M  V30 1 1 1 2
M  V30 2 2 2 3
M  V30 3 1 2 4
M  V30 4 1 3 5
M  V30 5 1 3 6
M  V30 6 2 4 7
M  V30 7 1 5 8
M  V30 8 2 6 9
M  V30 9 1 7 10
M  V30 10 1 8 11
M  V30 11 1 10 12
M  V30 12 1 11 13
M  V30 13 2 12 14
M  V30 14 1 12 15
M  V30 15 1 13 16
M  V30 16 1 16 17
M  V30 17 2 17 18
M  V30 18 1 17 19
M  V30 19 1 18 20
M  V30 20 1 18 21
M  V30 21 2 19 22
M  V30 22 1 20 23
M  V30 23 2 20 24
M  V30 24 1 21 25
M  V30 25 1 23 26
M  V30 26 1 24 27
M  V30 27 1 25 28
M  V30 28 1 27 29
M  V30 29 2 29 30
M  V30 30 1 29 31
M  V30 31 1 30 32
M  V30 32 2 31 33
M  V30 33 2 32 34
M  V30 34 1 7 9
M  V30 35 1 22 24
M  V30 36 2 26 27
M  V30 37 1 33 34
M  V30 END BOND
M  V30 END CTAB
M  END
>  <Molecule ChEMBL ID>
CHEMBL278994

>  <Smiles>
CCCc1c(OCCCSc2ccc(CC(=O)O)cc2Cl)ccc2c(-c3ccccc3)coc12

>  <IC50_nM>
94

>  <Assay Description>
Displacement of radio-labeled full agonist from PPARgamma receptor

$$$$
CHEMBL399217
Actelion Java MolfileCreator 2.0

  0  0  0  0  0  0              0 V3000
M  V30 BEGIN CTAB
M  V30 COUNTS 34 37 0 0 0
M  V30 BEGIN ATOM
M  V30 1 Cl 9.8201 -5.1517 0.0 0
M  V30 2 C 9.0701 -3.8526 0.0 0
M  V30 3 C 9.8201 -2.5536 0.0 0
M  V30 4 C 7.5701 -3.8526 0.0 0
M  V30 5 Cl 11.3201 -2.5536 0.0 0
M  V30 6 C 9.0701 -1.2546 0.0 0
M  V30 7 C 6.8201 -2.5536 0.0 0
M  V30 8 C 7.5701 -1.2546 0.0 0
M  V30 9 N 5.3529 -2.2417 0.0 0
M  V30 10 C 6.5664 -0.1398 0.0 0
M  V30 11 C 5.1961 -0.75 0.0 0
M  V30 12 C 3.8971 0.0 0.0 0
M  V30 13 O 3.8971 1.5 0.0 0
M  V30 14 N 2.598 -0.75 0.0 0
M  V30 15 C 1.299 0.0 0.0 0
M  V30 16 C 0.0 -0.75 0.0 0
M  V30 17 C -1.299 0.0 0.0 0
M  V30 18 C 0.0 -2.25 0.0 0
M  V30 19 C -2.598 -0.7499 0.0 0
M  V30 20 C -1.299 -2.9999 0.0 0
M  V30 21 O -3.8971 0.0 0.0 0
M  V30 22 C -2.598 -2.2499 0.0 0
M  V30 23 C -5.1961 -0.7499 0.0 0
M  V30 24 C -6.4951 0.0 0.0 0
M  V30 25 C -5.1961 -2.2499 0.0 0
M  V30 26 C -7.7942 -0.7499 0.0 0
M  V30 27 C -6.4951 -2.9999 0.0 0
M  V30 28 C -7.7942 -2.2499 0.0 0
M  V30 29 C -9.0932 0.0 0.0 0
M  V30 30 C -9.0932 -2.9999 0.0 0
M  V30 31 C -9.0932 -4.4999 0.0 0
M  V30 32 C -10.3923 -5.2499 0.0 0
M  V30 33 O -11.6913 -4.4999 0.0 0
M  V30 34 O -10.3923 -6.7499 0.0 0
M  V30 END ATOM
M  V30 BEGIN BOND
M  V30 1 1 1 2
M  V30 2 2 2 3
M  V30 3 1 2 4
M  V30 4 1 3 5
M  V30 5 1 3 6
M  V30 6 2 4 7
M  V30 7 2 6 8
M  V30 8 1 7 9
M  V30 9 1 8 10
M  V30 10 1 9 11
M  V30 11 1 11 12
M  V30 12 2 12 13
M  V30 13 1 12 14
M  V30 14 1 14 15
M  V30 15 1 15 16
M  V30 16 2 16 17
M  V30 17 1 16 18
M  V30 18 1 17 19
M  V30 19 2 18 20
M  V30 20 1 19 21
M  V30 21 2 19 22
M  V30 22 1 21 23
M  V30 23 2 23 24
M  V30 24 1 23 25
M  V30 25 1 24 26
M  V30 26 2 25 27
M  V30 27 2 26 28
M  V30 28 1 26 29
M  V30 29 1 28 30
M  V30 30 1 30 31
M  V30 31 1 31 32
M  V30 32 2 32 33
M  V30 33 1 32 34
M  V30 34 1 7 8
M  V30 35 2 10 11
M  V30 36 1 20 22
M  V30 37 1 27 28
M  V30 END BOND
M  V30 END CTAB
M  END
>  <Molecule ChEMBL ID>
CHEMBL399217

>  <Smiles>
Cc1cc(Oc2cccc(CNC(=O)c3cc4cc(Cl)c(Cl)cc4[nH]3)c2)ccc1CCC(=O)O

>  <IC50_nM>
95

>  <Assay Description>
Displacement of [3H]2-methyl-2-(4-{3-{propyl-(5-pyridin-2-yl-thiophene-2-sulfonyl)-amino}-propyl}-phenoxy)-propionic acid from human PPARgamma

$$$$
CHEMBL399217
Actelion Java MolfileCreator 2.0

  0  0  0  0  0  0              0 V3000
M  V30 BEGIN CTAB
M  V30 COUNTS 34 37 0 0 0
M  V30 BEGIN ATOM
M  V30 1 Cl 9.8201 -5.1517 0.0 0
M  V30 2 C 9.0701 -3.8526 0.0 0
M  V30 3 C 9.8201 -2.5536 0.0 0
M  V30 4 C 7.5701 -3.8526 0.0 0
M  V30 5 Cl 11.3201 -2.5536 0.0 0
M  V30 6 C 9.0701 -1.2546 0.0 0
M  V30 7 C 6.8201 -2.5536 0.0 0
M  V30 8 C 7.5701 -1.2546 0.0 0
M  V30 9 N 5.3529 -2.2417 0.0 0
M  V30 10 C 6.5664 -0.1398 0.0 0
M  V30 11 C 5.1961 -0.75 0.0 0
M  V30 12 C 3.8971 0.0 0.0 0
M  V30 13 O 3.8971 1.5 0.0 0
M  V30 14 N 2.598 -0.75 0.0 0
M  V30 15 C 1.299 0.0 0.0 0
M  V30 16 C 0.0 -0.75 0.0 0
M  V30 17 C -1.299 0.0 0.0 0
M  V30 18 C 0.0 -2.25 0.0 0
M  V30 19 C -2.598 -0.7499 0.0 0
M  V30 20 C -1.299 -2.9999 0.0 0
M  V30 21 O -3.8971 0.0 0.0 0
M  V30 22 C -2.598 -2.2499 0.0 0
M  V30 23 C -5.1961 -0.7499 0.0 0
M  V30 24 C -6.4951 0.0 0.0 0
M  V30 25 C -5.1961 -2.2499 0.0 0
M  V30 26 C -7.7942 -0.7499 0.0 0
M  V30 27 C -6.4951 -2.9999 0.0 0
M  V30 28 C -7.7942 -2.2499 0.0 0
M  V30 29 C -9.0932 0.0 0.0 0
M  V30 30 C -9.0932 -2.9999 0.0 0
M  V30 31 C -9.0932 -4.4999 0.0 0
M  V30 32 C -10.3923 -5.2499 0.0 0
M  V30 33 O -11.6913 -4.4999 0.0 0
M  V30 34 O -10.3923 -6.7499 0.0 0
M  V30 END ATOM
M  V30 BEGIN BOND
M  V30 1 1 1 2
M  V30 2 2 2 3
M  V30 3 1 2 4
M  V30 4 1 3 5
M  V30 5 1 3 6
M  V30 6 2 4 7
M  V30 7 2 6 8
M  V30 8 1 7 9
M  V30 9 1 8 10
M  V30 10 1 9 11
M  V30 11 1 11 12
M  V30 12 2 12 13
M  V30 13 1 12 14
M  V30 14 1 14 15
M  V30 15 1 15 16
M  V30 16 2 16 17
M  V30 17 1 16 18
M  V30 18 1 17 19
M  V30 19 2 18 20
M  V30 20 1 19 21
M  V30 21 2 19 22
M  V30 22 1 21 23
M  V30 23 2 23 24
M  V30 24 1 23 25
M  V30 25 1 24 26
M  V30 26 2 25 27
M  V30 27 2 26 28
M  V30 28 1 26 29
M  V30 29 1 28 30
M  V30 30 1 30 31
M  V30 31 1 31 32
M  V30 32 2 32 33
M  V30 33 1 32 34
M  V30 34 1 7 8
M  V30 35 2 10 11
M  V30 36 1 20 22
M  V30 37 1 27 28
M  V30 END BOND
M  V30 END CTAB
M  END
>  <Molecule ChEMBL ID>
CHEMBL399217

>  <Smiles>
Cc1cc(Oc2cccc(CNC(=O)c3cc4cc(Cl)c(Cl)cc4[nH]3)c2)ccc1CCC(=O)O

>  <IC50_nM>
95.06

>  <Assay Description>
Agonist activity at PPARgamma

$$$$
CHEMBL3736412
Actelion Java MolfileCreator 2.0

  0  0  0  0  0  0              0 V3000
M  V30 BEGIN CTAB
M  V30 COUNTS 47 52 0 0 0
M  V30 BEGIN ATOM
M  V30 1 O 11.1837 5.7369 0.0 0
M  V30 2 C 10.8747 4.7859 0.0 0
M  V30 3 O 9.8965 4.578 0.0 0
M  V30 4 C 11.5438 4.0427 0.0 0
M  V30 5 C 11.2348 3.0917 0.0 0
M  V30 6 C 12.522 4.2506 0.0 0
M  V30 7 C 10.2566 2.8838 0.0 0
M  V30 8 C 11.9039 2.3485 0.0 0
M  V30 9 C 13.1911 3.5075 0.0 0
M  V30 10 C 9.5875 3.6269 0.0 0
M  V30 11 C 9.9476 1.9327 0.0 0
M  V30 12 C 12.8821 2.5564 0.0 0
M  V30 13 C 8.6094 3.419 0.0 0
M  V30 14 C 8.9695 1.7248 0.0 0
M  V30 15 C 8.3003 2.4679 0.0 0
M  V30 16 C 7.3222 2.26 0.0 0
M  V30 17 N 7.0132 1.309 0.0 0
M  V30 18 C 6.0621 0.9999 0.0 0
M  V30 19 C 7.601 0.5 0.0 0
M  V30 20 C 6.0621 0.0 0.0 0
M  V30 21 C 5.1961 1.4999 0.0 0
M  V30 22 C 7.0132 -0.309 0.0 0
M  V30 23 C 8.601 0.5 0.0 0
M  V30 24 C 5.1961 -0.5 0.0 0
M  V30 25 C 4.3301 0.9999 0.0 0
M  V30 26 C 7.3222 -1.26 0.0 0
M  V30 27 C 4.3301 0.0 0.0 0
M  V30 28 C 3.4641 -0.5 0.0 0
M  V30 29 O 3.4641 -1.5 0.0 0
M  V30 30 N 2.598 0.0 0.0 0
M  V30 31 C 1.732 -0.5 0.0 0 CFG=2
M  V30 32 C 1.732 -1.5 0.0 0
M  V30 33 C 0.866 0.0 0.0 0
M  V30 34 C 0.866 -2.0 0.0 0
M  V30 35 C 2.598 -1.9999 0.0 0
M  V30 36 C 0.0 -0.5 0.0 0
M  V30 37 C 0.866 -3.0 0.0 0
M  V30 38 C 2.598 -3.0 0.0 0
M  V30 39 C -0.866 0.0 0.0 0
M  V30 40 C 0.0 -1.4999 0.0 0
M  V30 41 C 1.732 -3.5 0.0 0
M  V30 42 C 0.0 -3.5 0.0 0
M  V30 43 C -1.732 -0.4999 0.0 0
M  V30 44 C -0.866 -1.9999 0.0 0
M  V30 45 C -0.866 -3.0 0.0 0
M  V30 46 C 0.0 -4.5 0.0 0
M  V30 47 C -1.732 -1.4999 0.0 0
M  V30 END ATOM
M  V30 BEGIN BOND
M  V30 1 2 1 2
M  V30 2 1 2 3
M  V30 3 1 2 4
M  V30 4 2 4 5
M  V30 5 1 4 6
M  V30 6 1 5 7
M  V30 7 1 5 8
M  V30 8 2 6 9
M  V30 9 2 7 10
M  V30 10 1 7 11
M  V30 11 2 8 12
M  V30 12 1 10 13
M  V30 13 2 11 14
M  V30 14 2 13 15
M  V30 15 1 15 16
M  V30 16 1 16 17
M  V30 17 1 17 18
M  V30 18 1 17 19
M  V30 19 2 18 20
M  V30 20 1 18 21
M  V30 21 2 19 22
M  V30 22 1 19 23
M  V30 23 1 20 24
M  V30 24 2 21 25
M  V30 25 1 22 26
M  V30 26 2 24 27
M  V30 27 1 27 28
M  V30 28 2 28 29
M  V30 29 1 28 30
M  V30 30 1 31 30 CFG=3
M  V30 31 1 31 32
M  V30 32 1 31 33
M  V30 33 2 32 34
M  V30 34 1 32 35
M  V30 35 1 33 36
M  V30 36 1 34 37
M  V30 37 2 35 38
M  V30 38 2 36 39
M  V30 39 1 36 40
M  V30 40 2 37 41
M  V30 41 1 37 42
M  V30 42 1 39 43
M  V30 43 2 40 44
M  V30 44 1 42 45
M  V30 45 1 42 46
M  V30 46 2 43 47
M  V30 47 1 9 12
M  V30 48 1 14 15
M  V30 49 1 20 22
M  V30 50 1 25 27
M  V30 51 1 38 41
M  V30 52 1 44 47
M  V30 END BOND
M  V30 BEGIN COLLECTION
M  V30 MDLV30/STEABS ATOMS=(1 31)
M  V30 END COLLECTION
M  V30 END CTAB
M  END
>  <Molecule ChEMBL ID>
CHEMBL3736412

>  <Smiles>
Cc1c(C)n(Cc2ccc(-c3ccccc3C(=O)O)cc2)c2ccc(C(=O)N[C@@H](Cc3ccccc3)c3cccc(C(C)C)c3)cc12

>  <IC50_nM>
97

>  <Assay Description>
Binding affinity to GST-tagged PPAR-gamma-LBD (unknown origin) after 2 hrs by Lantha screen assay using fluormone Pan-PPAR green probe

$$$$
CHEMBL3695904
Actelion Java MolfileCreator 2.0

  0  0  0  0  0  0              0 V3000
M  V30 BEGIN CTAB
M  V30 COUNTS 44 49 0 0 0
M  V30 BEGIN ATOM
M  V30 1 O 6.4951 0.0 0.0 0
M  V30 2 C 5.1961 -0.75 0.0 0
M  V30 3 N 3.8971 0.0 0.0 0
M  V30 4 C 5.1961 -2.25 0.0 0
M  V30 5 C 2.598 -0.7499 0.0 0 CFG=2
M  V30 6 C 6.4951 -3.0 0.0 0
M  V30 7 C 3.8971 -3.0 0.0 0
M  V30 8 C 1.299 0.0 0.0 0
M  V30 9 C 2.598 -2.2499 0.0 0
M  V30 10 C 6.4951 -4.5 0.0 0
M  V30 11 C 3.8971 -4.5 0.0 0
M  V30 12 C 0.0 -0.7499 0.0 0
M  V30 13 C 1.299 1.5 0.0 0
M  V30 14 C 1.299 -2.9999 0.0 0
M  V30 15 C 5.1961 -5.25 0.0 0
M  V30 16 C 7.6099 -5.5036 0.0 0
M  V30 17 C -1.299 0.0 0.0 0
M  V30 18 C 0.0 2.25 0.0 0
M  V30 19 C 1.299 -4.4999 0.0 0
M  V30 20 C 0.0 -2.2499 0.0 0
M  V30 21 N 5.508 -6.7172 0.0 0
M  V30 22 C 6.9998 -6.874 0.0 0
M  V30 23 C 9.0771 -5.1918 0.0 0
M  V30 24 C -1.299 1.4999 0.0 0
M  V30 25 C -2.598 -0.75 0.0 0
M  V30 26 C 0.0 -5.25 0.0 0
M  V30 27 C -1.299 -3.0 0.0 0
M  V30 28 C 4.5043 -7.8319 0.0 0
M  V30 29 C 7.7498 -8.173 0.0 0
M  V30 30 C -2.598 -2.2499 0.0 0
M  V30 31 C -3.8971 0.0 0.0 0
M  V30 32 C -1.299 -4.4999 0.0 0
M  V30 33 C 4.9678 -9.2585 0.0 0
M  V30 34 C 3.9641 -10.3732 0.0 0
M  V30 35 C 6.435 -9.5703 0.0 0
M  V30 36 C 4.4276 -11.7998 0.0 0
M  V30 37 C 6.8985 -10.9969 0.0 0
M  V30 38 C 5.8949 -12.1116 0.0 0
M  V30 39 C 6.3584 -13.5382 0.0 0
M  V30 40 C 5.3547 -14.6529 0.0 0
M  V30 41 C 7.8256 -13.8501 0.0 0
M  V30 42 C 5.8182 -16.0795 0.0 0
M  V30 43 C 8.2891 -15.2767 0.0 0
M  V30 44 C 7.2854 -16.3914 0.0 0
M  V30 END ATOM
M  V30 BEGIN BOND
M  V30 1 2 1 2
M  V30 2 1 2 3
M  V30 3 1 2 4
M  V30 4 1 5 3 CFG=1
M  V30 5 2 4 6
M  V30 6 1 4 7
M  V30 7 1 5 8
M  V30 8 1 5 9
M  V30 9 1 6 10
M  V30 10 2 7 11
M  V30 11 2 8 12
M  V30 12 1 8 13
M  V30 13 1 9 14
M  V30 14 2 10 15
M  V30 15 1 10 16
M  V30 16 1 12 17
M  V30 17 2 13 18
M  V30 18 2 14 19
M  V30 19 1 14 20
M  V30 20 1 15 21
M  V30 21 2 16 22
M  V30 22 1 16 23
M  V30 23 2 17 24
M  V30 24 1 17 25
M  V30 25 1 19 26
M  V30 26 2 20 27
M  V30 27 1 21 28
M  V30 28 1 22 29
M  V30 29 1 25 30
M  V30 30 1 25 31
M  V30 31 2 26 32
M  V30 32 1 28 33
M  V30 33 2 33 34
M  V30 34 1 33 35
M  V30 35 1 34 36
M  V30 36 2 35 37
M  V30 37 2 36 38
M  V30 38 1 38 39
M  V30 39 2 39 40
M  V30 40 1 39 41
M  V30 41 1 40 42
M  V30 42 2 41 43
M  V30 43 2 42 44
M  V30 44 1 11 15
M  V30 45 1 18 24
M  V30 46 1 21 22
M  V30 47 1 27 32
M  V30 48 1 37 38
M  V30 49 1 43 44
M  V30 END BOND
M  V30 BEGIN COLLECTION
M  V30 MDLV30/STEABS ATOMS=(1 5)
M  V30 END COLLECTION
M  V30 END CTAB
M  END
>  <Molecule ChEMBL ID>
CHEMBL3695904

>  <Smiles>
Cc1c(C)n(Cc2ccc(-c3ccccc3)cc2)c2ccc(C(=O)N[C@@H](Cc3ccccc3)c3cccc(C(C)C)c3)cc12

>  <IC50_nM>
97

>  <Assay Description>
Lanthascreen Competitive Binding Assay: The assay was performed according to manufacturer protocol. A mixture of nM GST-PPARG-LBD, 5 nM Tb-GST-antibody, 5 nM Fluormone Pan-PPAR Green, and serial dilutions of the experimental compound, beginning at 10 ׬M downwards, was added to wells of black 384-well low-volume plates (Greiner) to a total volume of 18 ׬L. All dilutions were made in TR-FRET assay buffer C. DMSO at 2% final concentration was used as a no-ligand control. Experiment was performed in triplicate, and incubated for 2 hours in the dark prior to assay read in Perkin Elmer ViewLux ultra HTS microplate reader. FRET signal was measured by excitation at 340 nm and emission at 520 nm for fluorescein and 490 nm for terbium. Fold change over DMSO was calculated using GraphPad Prism Software (La Jolla, Calif.) by calculating 520 nm/490 nm ratio. Graphs were plotted as fold change of FRET signal for compound treatment over DMSO-only control.

$$$$
CHEMBL3678147
Actelion Java MolfileCreator 2.0

  0  0  0  0  0  0              0 V3000
M  V30 BEGIN CTAB
M  V30 COUNTS 39 43 0 0 0
M  V30 BEGIN ATOM
M  V30 1 O 3.4014 5.4139 0.0 0
M  V30 2 C 4.8686 5.7258 0.0 0
M  V30 3 N 5.3321 7.1524 0.0 0
M  V30 4 C 5.8723 4.6111 0.0 0
M  V30 5 C 6.7994 7.4642 0.0 0 CFG=2
M  V30 6 C 7.3395 4.9229 0.0 0
M  V30 7 C 5.4088 3.1845 0.0 0
M  V30 8 C 7.2629 8.8908 0.0 0
M  V30 9 C 7.803 6.3495 0.0 0
M  V30 10 C 8.3432 3.8082 0.0 0
M  V30 11 C 6.4125 2.0698 0.0 0
M  V30 12 C 8.7301 9.2027 0.0 0
M  V30 13 C 6.2592 10.0055 0.0 0
M  V30 14 C 7.8797 2.3816 0.0 0
M  V30 15 C 9.8432 3.8082 0.0 0
M  V30 16 C 9.1936 10.6293 0.0 0
M  V30 17 C 6.7227 11.4321 0.0 0
M  V30 18 N 9.0932 1.5 0.0 0
M  V30 19 C 10.3067 2.3816 0.0 0
M  V30 20 C 10.7249 5.0217 0.0 0
M  V30 21 C 8.1899 11.744 0.0 0
M  V30 22 C 10.6608 10.9411 0.0 0
M  V30 23 C 9.0932 0.0 0.0 0
M  V30 24 C 11.7333 1.9181 0.0 0
M  V30 25 C 12.0874 10.4776 0.0 0
M  V30 26 C 11.7756 11.9448 0.0 0
M  V30 27 C 10.3923 -0.75 0.0 0
M  V30 28 C 7.7942 -0.75 0.0 0
M  V30 29 C 11.6913 0.0 0.0 0
M  V30 30 C 10.3923 -2.25 0.0 0
M  V30 31 C 12.9903 -0.75 0.0 0
M  V30 32 C 11.6913 -3.0 0.0 0
M  V30 33 O 14.2894 0.0 0.0 0
M  V30 34 C 12.9903 -2.25 0.0 0
M  V30 35 C 15.5884 -0.7499 0.0 0 CFG=2
M  V30 36 C 16.8874 0.0 0.0 0
M  V30 37 C 15.5884 -2.25 0.0 0
M  V30 38 O 16.8874 1.5 0.0 0
M  V30 39 O 18.1865 -0.75 0.0 0
M  V30 END ATOM
M  V30 BEGIN BOND
M  V30 1 2 1 2
M  V30 2 1 2 3
M  V30 3 1 2 4
M  V30 4 1 3 5
M  V30 5 2 4 6
M  V30 6 1 4 7
M  V30 7 1 5 8
M  V30 8 1 5 9 CFG=3
M  V30 9 1 6 10
M  V30 10 2 7 11
M  V30 11 2 8 12
M  V30 12 1 8 13
M  V30 13 2 10 14
M  V30 14 1 10 15
M  V30 15 1 12 16
M  V30 16 2 13 17
M  V30 17 1 14 18
M  V30 18 2 15 19
M  V30 19 1 15 20
M  V30 20 2 16 21
M  V30 21 1 16 22
M  V30 22 1 18 23
M  V30 23 1 19 24
M  V30 24 1 22 25
M  V30 25 1 22 26
M  V30 26 1 23 27
M  V30 27 1 23 28
M  V30 28 2 27 29
M  V30 29 1 27 30
M  V30 30 1 29 31
M  V30 31 2 30 32
M  V30 32 1 31 33
M  V30 33 2 31 34
M  V30 34 1 33 35
M  V30 35 1 35 36
M  V30 36 1 35 37 CFG=3
M  V30 37 2 36 38
M  V30 38 1 36 39
M  V30 39 1 11 14
M  V30 40 1 17 21
M  V30 41 1 18 19
M  V30 42 1 25 26
M  V30 43 1 32 34
M  V30 END BOND
M  V30 BEGIN COLLECTION
M  V30 MDLV30/STEABS ATOMS=(2 5 35)
M  V30 END COLLECTION
M  V30 END CTAB
M  END
>  <Molecule ChEMBL ID>
CHEMBL3678147

>  <Smiles>
Cc1c(C)n(C(C)c2cccc(O[C@@H](C)C(=O)O)c2)c2ccc(C(=O)N[C@@H](C)c3cccc(C4CC4)c3)cc12

>  <IC50_nM>
97

>  <Assay Description>
Lanthascreen Competitive Binding Assay: The assay was performed according to manufacturer protocol. A mixture of 5 nM GST-PPARG-LBD, 5 nM Tb-GST-antibody, 5 nM Fluormone Pan- PPAR Green, and serial dilutions of the experimental compound, beginning at 10 ׬� downwards, was added to wells of black 384-well low- volume plates (Greiner) to a total volume of 18 xL. All dilutions were made in TR-FRET assay buffer C. DMSO at 2% final concentration was used as a no-ligand control. Experiment was performed in triplicate, and incubated for 2 hours in the dark prior to assay read in Perkin Elmer ViewLux ultra HTS microplate reader. FRET signal was measured by excitation at 340 nm and emission at 520 nm for fluorescein and 490 nm for terbium.

$$$$
CHEMBL3699410
Actelion Java MolfileCreator 2.0

  0  0  0  0  0  0              0 V3000
M  V30 BEGIN CTAB
M  V30 COUNTS 39 43 0 0 0
M  V30 BEGIN ATOM
M  V30 1 Br 4.3301 -2.9999 0.0 0
M  V30 2 C 4.3301 -1.9999 0.0 0
M  V30 3 N 5.1961 -1.5 0.0 0
M  V30 4 C 3.4641 -1.5 0.0 0
M  V30 5 C 5.1961 -0.5 0.0 0
M  V30 6 C 3.4641 -0.5 0.0 0
M  V30 7 C 4.3301 0.0 0.0 0
M  V30 8 C 2.598 0.0 0.0 0 CFG=1
M  V30 9 N 1.732 -0.5 0.0 0
M  V30 10 C 2.598 1.0 0.0 0
M  V30 11 C 0.866 0.0 0.0 0
M  V30 12 O 0.866 1.0 0.0 0
M  V30 13 C 0.0 -0.5 0.0 0
M  V30 14 C 0.0 -1.4999 0.0 0
M  V30 15 C -0.866 0.0 0.0 0
M  V30 16 C -0.866 -1.9999 0.0 0
M  V30 17 C -1.732 -0.4999 0.0 0
M  V30 18 C -1.732 -1.4999 0.0 0
M  V30 19 C -1.0739 -2.9781 0.0 0
M  V30 20 N -2.4751 -2.1691 0.0 0
M  V30 21 C -2.0684 -3.0826 0.0 0
M  V30 22 C -0.4048 -3.7212 0.0 0
M  V30 23 C -3.4533 -1.9612 0.0 0
M  V30 24 C -2.5684 -3.9487 0.0 0
M  V30 25 C -4.1224 -2.7043 0.0 0
M  V30 26 C -5.1006 -2.4964 0.0 0
M  V30 27 C -3.8134 -3.6554 0.0 0
M  V30 28 C -5.7697 -3.2395 0.0 0
M  V30 29 C -4.4825 -4.3985 0.0 0
M  V30 30 C -5.4607 -4.1906 0.0 0
M  V30 31 C -6.1298 -4.9337 0.0 0
M  V30 32 C -7.108 -4.7258 0.0 0
M  V30 33 C -5.8208 -5.8848 0.0 0
M  V30 34 C -7.417 -3.7748 0.0 0
M  V30 35 C -7.7771 -5.469 0.0 0
M  V30 36 C -6.4899 -6.6279 0.0 0
M  V30 37 O -6.7478 -3.0316 0.0 0
M  V30 38 O -8.3951 -3.5669 0.0 0
M  V30 39 C -7.4681 -6.42 0.0 0
M  V30 END ATOM
M  V30 BEGIN BOND
M  V30 1 1 1 2
M  V30 2 2 2 3
M  V30 3 1 2 4
M  V30 4 1 3 5
M  V30 5 2 4 6
M  V30 6 2 5 7
M  V30 7 1 6 8
M  V30 8 1 8 9
M  V30 9 1 8 10 CFG=1
M  V30 10 1 9 11
M  V30 11 2 11 12
M  V30 12 1 11 13
M  V30 13 2 13 14
M  V30 14 1 13 15
M  V30 15 1 14 16
M  V30 16 2 15 17
M  V30 17 2 16 18
M  V30 18 1 16 19
M  V30 19 1 18 20
M  V30 20 2 19 21
M  V30 21 1 19 22
M  V30 22 1 20 23
M  V30 23 1 21 24
M  V30 24 1 23 25
M  V30 25 2 25 26
M  V30 26 1 25 27
M  V30 27 1 26 28
M  V30 28 2 27 29
M  V30 29 2 28 30
M  V30 30 1 30 31
M  V30 31 2 31 32
M  V30 32 1 31 33
M  V30 33 1 32 34
M  V30 34 1 32 35
M  V30 35 2 33 36
M  V30 36 2 34 37
M  V30 37 1 34 38
M  V30 38 2 35 39
M  V30 39 1 6 7
M  V30 40 1 17 18
M  V30 41 1 20 21
M  V30 42 1 29 30
M  V30 43 1 36 39
M  V30 END BOND
M  V30 BEGIN COLLECTION
M  V30 MDLV30/STEABS ATOMS=(1 8)
M  V30 END COLLECTION
M  V30 END CTAB
M  END
>  <Molecule ChEMBL ID>
CHEMBL3699410

>  <Smiles>
Cc1c(C)n(Cc2ccc(-c3ccccc3C(=O)O)cc2)c2ccc(C(=O)N[C@@H](C)c3ccnc(Br)c3)cc12

>  <IC50_nM>
98

>  <Assay Description>
Lanthascreen Competitive Binding Assay: The assay was performed according to manufacturer protocol. A mixture of nM GST-PPARG-LBD, 5 nM Tb-GST-antibody, 5 nM Fluormone Pan-PPAR Green, and serial dilutions of the experimental compound, beginning at 10 ׬M downwards, was added to wells of black 384-well low-volume plates (Greiner) to a total volume of 18 ׬L. All dilutions were made in TR-FRET assay buffer C. DMSO at 2% final concentration was used as a no-ligand control. Experiment was performed in triplicate, and incubated for 2 hours in the dark prior to assay read in Perkin Elmer ViewLux ultra HTS microplate reader. FRET signal was measured by excitation at 340 nm and emission at 520 nm for fluorescein and 490 nm for terbium. Fold change over DMSO was calculated using GraphPad Prism Software (La Jolla, Calif.) by calculating 520 nm/490 nm ratio. Graphs were plotted as fold change of FRET signal for compound treatment over DMSO-only control.

$$$$
CHEMBL399417
Actelion Java MolfileCreator 2.0

  0  0  0  0  0  0              0 V3000
M  V30 BEGIN CTAB
M  V30 COUNTS 34 37 0 0 0
M  V30 BEGIN ATOM
M  V30 1 Cl 9.8201 -5.1517 0.0 0
M  V30 2 C 9.0701 -3.8526 0.0 0
M  V30 3 C 7.5701 -3.8526 0.0 0
M  V30 4 C 9.8201 -2.5536 0.0 0
M  V30 5 C 6.8201 -2.5536 0.0 0
M  V30 6 C 9.0701 -1.2546 0.0 0
M  V30 7 C 7.5701 -1.2546 0.0 0
M  V30 8 C 5.3529 -2.2417 0.0 0
M  V30 9 N 6.5664 -0.1398 0.0 0
M  V30 10 C 5.1961 -0.75 0.0 0
M  V30 11 C 6.8783 1.3273 0.0 0
M  V30 12 C 3.8971 0.0 0.0 0
M  V30 13 O 3.8971 1.5 0.0 0
M  V30 14 N 2.598 -0.75 0.0 0
M  V30 15 C 1.299 0.0 0.0 0
M  V30 16 C 0.0 -0.75 0.0 0
M  V30 17 C -1.299 0.0 0.0 0
M  V30 18 C 0.0 -2.25 0.0 0
M  V30 19 C -2.598 -0.7499 0.0 0
M  V30 20 C -1.299 -2.9999 0.0 0
M  V30 21 O -3.8971 0.0 0.0 0
M  V30 22 C -2.598 -2.2499 0.0 0
M  V30 23 C -5.1961 -0.7499 0.0 0
M  V30 24 C -6.4951 0.0 0.0 0
M  V30 25 C -5.1961 -2.2499 0.0 0
M  V30 26 C -7.7942 -0.7499 0.0 0
M  V30 27 C -6.4951 -2.9999 0.0 0
M  V30 28 C -7.7942 -2.2499 0.0 0
M  V30 29 C -9.0932 0.0 0.0 0
M  V30 30 C -9.0932 -2.9999 0.0 0
M  V30 31 C -9.0932 -4.4999 0.0 0
M  V30 32 C -10.3923 -5.2499 0.0 0
M  V30 33 O -11.6913 -4.4999 0.0 0
M  V30 34 O -10.3923 -6.7499 0.0 0
M  V30 END ATOM
M  V30 BEGIN BOND
M  V30 1 1 1 2
M  V30 2 2 2 3
M  V30 3 1 2 4
M  V30 4 1 3 5
M  V30 5 2 4 6
M  V30 6 2 5 7
M  V30 7 1 5 8
M  V30 8 1 7 9
M  V30 9 2 8 10
M  V30 10 1 9 11
M  V30 11 1 10 12
M  V30 12 2 12 13
M  V30 13 1 12 14
M  V30 14 1 14 15
M  V30 15 1 15 16
M  V30 16 2 16 17
M  V30 17 1 16 18
M  V30 18 1 17 19
M  V30 19 2 18 20
M  V30 20 1 19 21
M  V30 21 2 19 22
M  V30 22 1 21 23
M  V30 23 2 23 24
M  V30 24 1 23 25
M  V30 25 1 24 26
M  V30 26 2 25 27
M  V30 27 2 26 28
M  V30 28 1 26 29
M  V30 29 1 28 30
M  V30 30 1 30 31
M  V30 31 1 31 32
M  V30 32 2 32 33
M  V30 33 1 32 34
M  V30 34 1 6 7
M  V30 35 1 9 10
M  V30 36 1 20 22
M  V30 37 1 27 28
M  V30 END BOND
M  V30 END CTAB
M  END
>  <Molecule ChEMBL ID>
CHEMBL399417

>  <Smiles>
Cc1cc(Oc2cccc(CNC(=O)c3cc4cc(Cl)ccc4n3C)c2)ccc1CCC(=O)O

>  <IC50_nM>
98

>  <Assay Description>
Displacement of [3H]2-methyl-2-(4-{3-{propyl-(5-pyridin-2-yl-thiophene-2-sulfonyl)-amino}-propyl}-phenoxy)-propionic acid from human PPARgamma

$$$$
CHEMBL3678104
Actelion Java MolfileCreator 2.0

  0  0  0  0  0  0              0 V3000
M  V30 BEGIN CTAB
M  V30 COUNTS 31 34 0 0 0
M  V30 BEGIN ATOM
M  V30 1 S 10.9833 3.3901 0.0 0
M  V30 2 O 12.4099 2.9265 0.0 0
M  V30 3 O 12.098 4.3938 0.0 0
M  V30 4 N 10.5198 1.9635 0.0 0
M  V30 5 C 9.9796 4.5048 0.0 0
M  V30 6 C 9.0932 1.5 0.0 0
M  V30 7 C 11.4015 0.75 0.0 0
M  V30 8 C 10.4432 5.9314 0.0 0
M  V30 9 C 8.5124 4.1929 0.0 0
M  V30 10 C 9.0932 0.0 0.0 0
M  V30 11 C 7.7942 2.25 0.0 0
M  V30 12 C 10.5198 -0.4635 0.0 0
M  V30 13 C 9.4395 7.0461 0.0 0
M  V30 14 C 7.5087 5.3076 0.0 0
M  V30 15 C 7.7942 -0.75 0.0 0
M  V30 16 C 6.4951 1.5 0.0 0
M  V30 17 C 7.9722 6.7342 0.0 0
M  V30 18 C 6.4951 0.0 0.0 0
M  V30 19 C 6.9686 7.8489 0.0 0
M  V30 20 C 5.1961 -0.75 0.0 0
M  V30 21 O 5.1961 -2.25 0.0 0
M  V30 22 N 3.8971 0.0 0.0 0
M  V30 23 C 2.598 -0.75 0.0 0 CFG=2
M  V30 24 C 2.598 -2.25 0.0 0
M  V30 25 C 1.299 0.0 0.0 0
M  V30 26 C 1.299 -3.0 0.0 0
M  V30 27 C 3.8971 -3.0 0.0 0
M  V30 28 C 0.0 -0.75 0.0 0
M  V30 29 C 1.299 -4.5 0.0 0
M  V30 30 C 3.8971 -4.5 0.0 0
M  V30 31 C 2.598 -5.25 0.0 0
M  V30 END ATOM
M  V30 BEGIN BOND
M  V30 1 2 1 2
M  V30 2 2 1 3
M  V30 3 1 1 4
M  V30 4 1 1 5
M  V30 5 1 4 6
M  V30 6 1 4 7
M  V30 7 2 5 8
M  V30 8 1 5 9
M  V30 9 2 6 10
M  V30 10 1 6 11
M  V30 11 2 7 12
M  V30 12 1 8 13
M  V30 13 2 9 14
M  V30 14 1 10 15
M  V30 15 2 11 16
M  V30 16 2 13 17
M  V30 17 2 15 18
M  V30 18 1 17 19
M  V30 19 1 18 20
M  V30 20 2 20 21
M  V30 21 1 20 22
M  V30 22 1 23 22 CFG=3
M  V30 23 1 23 24
M  V30 24 1 23 25
M  V30 25 2 24 26
M  V30 26 1 24 27
M  V30 27 1 25 28
M  V30 28 1 26 29
M  V30 29 2 27 30
M  V30 30 2 29 31
M  V30 31 1 10 12
M  V30 32 1 14 17
M  V30 33 1 16 18
M  V30 34 1 30 31
M  V30 END BOND
M  V30 BEGIN COLLECTION
M  V30 MDLV30/STERAC1 ATOMS=(1 23)
M  V30 END COLLECTION
M  V30 END CTAB
M  END
>  <Molecule ChEMBL ID>
CHEMBL3678104

>  <Smiles>
CCC(NC(=O)c1ccc2c(ccn2S(=O)(=O)c2ccc(C)cc2)c1)c1ccccc1

>  <IC50_nM>
98

>  <Assay Description>
Lanthascreen Competitive Binding Assay: The assay was performed according to manufacturer protocol. A mixture of 5 nM GST-PPARG-LBD, 5 nM Tb-GST-antibody, 5 nM Fluormone Pan- PPAR Green, and serial dilutions of the experimental compound, beginning at 10 ׬� downwards, was added to wells of black 384-well low- volume plates (Greiner) to a total volume of 18 xL. All dilutions were made in TR-FRET assay buffer C. DMSO at 2% final concentration was used as a no-ligand control. Experiment was performed in triplicate, and incubated for 2 hours in the dark prior to assay read in Perkin Elmer ViewLux ultra HTS microplate reader. FRET signal was measured by excitation at 340 nm and emission at 520 nm for fluorescein and 490 nm for terbium.

$$$$
CHEMBL3695853
Actelion Java MolfileCreator 2.0

  0  0  0  0  0  0              0 V3000
M  V30 BEGIN CTAB
M  V30 COUNTS 39 43 0 0 0
M  V30 BEGIN ATOM
M  V30 1 O 4.6457 5.2326 0.0 0
M  V30 2 C 5.3148 4.4895 0.0 0
M  V30 3 O 5.0058 3.5384 0.0 0
M  V30 4 C 6.293 4.6974 0.0 0
M  V30 5 C 6.9621 3.9542 0.0 0
M  V30 6 C 6.602 5.6484 0.0 0
M  V30 7 C 7.9402 4.1621 0.0 0
M  V30 8 C 7.5801 5.8563 0.0 0
M  V30 9 C 8.6094 3.419 0.0 0
M  V30 10 C 8.2493 5.1132 0.0 0
M  V30 11 C 8.3003 2.4679 0.0 0
M  V30 12 C 9.5875 3.6269 0.0 0
M  V30 13 C 8.9695 1.7248 0.0 0
M  V30 14 C 7.3222 2.26 0.0 0
M  V30 15 C 10.2566 2.8838 0.0 0
M  V30 16 C 9.9476 1.9327 0.0 0
M  V30 17 N 7.0132 1.309 0.0 0
M  V30 18 C 6.0621 0.9999 0.0 0
M  V30 19 C 7.601 0.5 0.0 0
M  V30 20 C 6.0621 0.0 0.0 0
M  V30 21 C 5.1961 1.4999 0.0 0
M  V30 22 C 7.0132 -0.309 0.0 0
M  V30 23 C 8.601 0.5 0.0 0
M  V30 24 C 5.1961 -0.5 0.0 0
M  V30 25 C 4.3301 0.9999 0.0 0
M  V30 26 C 7.3222 -1.26 0.0 0
M  V30 27 C 4.3301 0.0 0.0 0
M  V30 28 C 3.4641 -0.5 0.0 0
M  V30 29 O 3.4641 -1.5 0.0 0
M  V30 30 N 2.598 0.0 0.0 0
M  V30 31 C 1.732 -0.5 0.0 0 CFG=2
M  V30 32 C 1.732 -1.5 0.0 0
M  V30 33 C 0.866 0.0 0.0 0
M  V30 34 C 0.866 -1.9999 0.0 0
M  V30 35 C 2.598 -2.0 0.0 0
M  V30 36 C 0.0 -0.5 0.0 0
M  V30 37 C 0.866 -2.9999 0.0 0
M  V30 38 C 2.598 -3.0 0.0 0
M  V30 39 C 1.732 -3.5 0.0 0
M  V30 END ATOM
M  V30 BEGIN BOND
M  V30 1 2 1 2
M  V30 2 1 2 3
M  V30 3 1 2 4
M  V30 4 2 4 5
M  V30 5 1 4 6
M  V30 6 1 5 7
M  V30 7 2 6 8
M  V30 8 1 7 9
M  V30 9 2 7 10
M  V30 10 2 9 11
M  V30 11 1 9 12
M  V30 12 1 11 13
M  V30 13 1 11 14
M  V30 14 2 12 15
M  V30 15 2 13 16
M  V30 16 1 14 17
M  V30 17 1 17 18
M  V30 18 1 17 19
M  V30 19 2 18 20
M  V30 20 1 18 21
M  V30 21 2 19 22
M  V30 22 1 19 23
M  V30 23 1 20 24
M  V30 24 2 21 25
M  V30 25 1 22 26
M  V30 26 2 24 27
M  V30 27 1 27 28
M  V30 28 2 28 29
M  V30 29 1 28 30
M  V30 30 1 31 30 CFG=3
M  V30 31 1 31 32
M  V30 32 1 31 33
M  V30 33 2 32 34
M  V30 34 1 32 35
M  V30 35 1 33 36
M  V30 36 1 34 37
M  V30 37 2 35 38
M  V30 38 2 37 39
M  V30 39 1 8 10
M  V30 40 1 15 16
M  V30 41 1 20 22
M  V30 42 1 25 27
M  V30 43 1 38 39
M  V30 END BOND
M  V30 BEGIN COLLECTION
M  V30 MDLV30/STERAC1 ATOMS=(1 31)
M  V30 END COLLECTION
M  V30 END CTAB
M  END
>  <Molecule ChEMBL ID>
CHEMBL3695853

>  <Smiles>
CCC(NC(=O)c1ccc2c(c1)c(C)c(C)n2Cc1ccccc1-c1cccc(C(=O)O)c1)c1ccccc1

>  <IC50_nM>
99

>  <Assay Description>
Lanthascreen Competitive Binding Assay: The assay was performed according to manufacturer protocol. A mixture of nM GST-PPARG-LBD, 5 nM Tb-GST-antibody, 5 nM Fluormone Pan-PPAR Green, and serial dilutions of the experimental compound, beginning at 10 ׬M downwards, was added to wells of black 384-well low-volume plates (Greiner) to a total volume of 18 ׬L. All dilutions were made in TR-FRET assay buffer C. DMSO at 2% final concentration was used as a no-ligand control. Experiment was performed in triplicate, and incubated for 2 hours in the dark prior to assay read in Perkin Elmer ViewLux ultra HTS microplate reader. FRET signal was measured by excitation at 340 nm and emission at 520 nm for fluorescein and 490 nm for terbium. Fold change over DMSO was calculated using GraphPad Prism Software (La Jolla, Calif.) by calculating 520 nm/490 nm ratio. Graphs were plotted as fold change of FRET signal for compound treatment over DMSO-only control.

$$$$
CHEMBL364378
Actelion Java MolfileCreator 2.0

  0  0  0  0  0  0              0 V3000
M  V30 BEGIN CTAB
M  V30 COUNTS 32 34 0 0 0
M  V30 BEGIN ATOM
M  V30 1 O 7.7349 -0.9999 0.0 0
M  V30 2 C 6.7349 -0.9999 0.0 0
M  V30 3 O 6.1472 -0.1909 0.0 0
M  V30 4 N 6.1472 -1.809 0.0 0
M  V30 5 C 5.1961 -0.4999 0.0 0
M  V30 6 C 5.1961 -1.4999 0.0 0
M  V30 7 C 6.4562 -2.76 0.0 0
M  V30 8 C 4.3301 0.0 0.0 0
M  V30 9 C 4.3301 -2.0 0.0 0
M  V30 10 C 7.4343 -2.9679 0.0 0
M  V30 11 C 3.4641 -0.5 0.0 0
M  V30 12 C 4.4224 1.0977 0.0 0
M  V30 13 C 3.4641 -1.4999 0.0 0
M  V30 14 O 2.598 0.0 0.0 0
M  V30 15 C 5.1961 1.4999 0.0 0
M  V30 16 C 2.598 -1.9999 0.0 0
M  V30 17 C 2.598 1.0 0.0 0 CFG=1
M  V30 18 C 6.0621 1.0 0.0 0
M  V30 19 C 2.598 -2.9999 0.0 0
M  V30 20 C 1.732 1.4999 0.0 0
M  V30 21 C 3.4641 1.5 0.0 0
M  V30 22 C 1.732 -3.4999 0.0 0
M  V30 23 C 1.732 2.4999 0.0 0
M  V30 24 C 0.866 0.9999 0.0 0
M  V30 25 O 4.2408 0.7664 0.0 0
M  V30 26 O 3.4641 2.5 0.0 0
M  V30 27 C 0.866 3.0 0.0 0
M  V30 28 C 0.0 1.4999 0.0 0
M  V30 29 C 0.0 2.5 0.0 0
M  V30 30 C -0.866 2.9999 0.0 0
M  V30 31 C -0.866 4.0 0.0 0
M  V30 32 C -1.732 2.5 0.0 0
M  V30 END ATOM
M  V30 BEGIN BOND
M  V30 1 2 1 2
M  V30 2 1 2 3
M  V30 3 1 2 4
M  V30 4 1 3 5
M  V30 5 1 4 6
M  V30 6 1 4 7
M  V30 7 1 5 8
M  V30 8 1 6 9
M  V30 9 1 7 10
M  V30 10 2 8 11
M  V30 11 1 8 12
M  V30 12 2 9 13
M  V30 13 1 11 14
M  V30 14 1 12 15
M  V30 15 1 13 16
M  V30 16 1 17 14 CFG=1
M  V30 17 1 15 18
M  V30 18 1 16 19
M  V30 19 1 17 20
M  V30 20 1 17 21
M  V30 21 1 19 22
M  V30 22 2 20 23
M  V30 23 1 20 24
M  V30 24 2 21 25
M  V30 25 1 21 26
M  V30 26 1 23 27
M  V30 27 2 24 28
M  V30 28 2 27 29
M  V30 29 1 29 30
M  V30 30 1 30 31
M  V30 31 1 30 32
M  V30 32 2 5 6
M  V30 33 1 11 13
M  V30 34 1 28 29
M  V30 END BOND
M  V30 BEGIN COLLECTION
M  V30 MDLV30/STEABS ATOMS=(1 17)
M  V30 END COLLECTION
M  V30 END CTAB
M  END
>  <Molecule ChEMBL ID>
CHEMBL364378

>  <Smiles>
CCCc1cc2c(oc(=O)n2CC)c(CCC)c1O[C@H](C(=O)O)c1ccc(C(C)C)cc1

>  <IC50_nM>
99

>  <Assay Description>
In vitro binding affinity for human PPAR gamma

$$$$
CHEMBL271240
Actelion Java MolfileCreator 2.0

  0  0  0  0  0  0              0 V3000
M  V30 BEGIN CTAB
M  V30 COUNTS 38 42 0 0 0
M  V30 BEGIN ATOM
M  V30 1 O 6.687 -2.3319 0.0 0
M  V30 2 C 7.187 -1.4659 0.0 0
M  V30 3 N 8.1529 -1.2071 0.0 0
M  V30 4 C 6.9282 -0.5 0.0 0 CFG=2
M  V30 5 C 9.0189 -1.7071 0.0 0
M  V30 6 C 7.8941 -0.2411 0.0 0 CFG=1
M  V30 7 C 6.0621 0.0 0.0 0
M  V30 8 C 9.0189 -2.7071 0.0 0
M  V30 9 C 9.8849 -1.2071 0.0 0
M  V30 10 C 8.3941 0.6248 0.0 0
M  V30 11 C 5.1961 -0.5 0.0 0
M  V30 12 C 9.8849 -3.2071 0.0 0
M  V30 13 C 10.751 -1.7071 0.0 0
M  V30 14 O 9.3941 0.6248 0.0 0
M  V30 15 O 7.8941 1.4908 0.0 0
M  V30 16 C 4.3301 0.0 0.0 0
M  V30 17 C 5.1961 -1.4999 0.0 0
M  V30 18 C 10.751 -2.7071 0.0 0
M  V30 19 C 3.4641 -0.5 0.0 0
M  V30 20 C 4.3301 -1.9999 0.0 0
M  V30 21 O 11.617 -3.2071 0.0 0
M  V30 22 O 2.598 0.0 0.0 0
M  V30 23 C 3.4641 -1.4999 0.0 0
M  V30 24 C 12.483 -2.7071 0.0 0
M  V30 25 C 1.732 -0.5 0.0 0
M  V30 26 C 0.866 0.0 0.0 0
M  V30 27 C 0.0 -0.5 0.0 0
M  V30 28 N -0.9135 -0.0932 0.0 0
M  V30 29 C -0.1045 -1.4945 0.0 0
M  V30 30 C -1.5826 -0.8364 0.0 0
M  V30 31 O -1.0826 -1.7024 0.0 0
M  V30 32 C 0.6386 -2.1636 0.0 0
M  V30 33 C -2.5771 -0.7318 0.0 0
M  V30 34 C -2.9839 0.1816 0.0 0
M  V30 35 C -3.1649 -1.5408 0.0 0
M  V30 36 C -3.9784 0.2861 0.0 0
M  V30 37 C -4.1595 -1.4363 0.0 0
M  V30 38 C -4.5662 -0.5228 0.0 0
M  V30 END ATOM
M  V30 BEGIN BOND
M  V30 1 2 1 2
M  V30 2 1 2 3
M  V30 3 1 2 4
M  V30 4 1 3 5
M  V30 5 1 3 6
M  V30 6 1 4 7 CFG=1
M  V30 7 2 5 8
M  V30 8 1 5 9
M  V30 9 1 6 10 CFG=1
M  V30 10 1 7 11
M  V30 11 1 8 12
M  V30 12 2 9 13
M  V30 13 2 10 14
M  V30 14 1 10 15
M  V30 15 2 11 16
M  V30 16 1 11 17
M  V30 17 2 12 18
M  V30 18 1 16 19
M  V30 19 2 17 20
M  V30 20 1 18 21
M  V30 21 1 19 22
M  V30 22 2 19 23
M  V30 23 1 21 24
M  V30 24 1 22 25
M  V30 25 1 25 26
M  V30 26 1 26 27
M  V30 27 1 27 28
M  V30 28 2 27 29
M  V30 29 2 28 30
M  V30 30 1 29 31
M  V30 31 1 29 32
M  V30 32 1 30 33
M  V30 33 2 33 34
M  V30 34 1 33 35
M  V30 35 1 34 36
M  V30 36 2 35 37
M  V30 37 2 36 38
M  V30 38 1 4 6
M  V30 39 1 13 18
M  V30 40 1 20 23
M  V30 41 1 30 31
M  V30 42 1 37 38
M  V30 END BOND
M  V30 BEGIN COLLECTION
M  V30 MDLV30/STEABS ATOMS=(2 4 6)
M  V30 END COLLECTION
M  V30 END CTAB
M  END
>  <Molecule ChEMBL ID>
CHEMBL271240

>  <Smiles>
COc1ccc(N2C(=O)[C@@H](Cc3cccc(OCCc4nc(-c5ccccc5)oc4C)c3)[C@H]2C(=O)O)cc1

>  <IC50_nM>
100

>  <Assay Description>
Inhibition of PPARgamma

$$$$
CHEMBL3754507
Actelion Java MolfileCreator 2.0

  0  0  0  0  0  0              0 V3000
M  V30 BEGIN CTAB
M  V30 COUNTS 24 26 0 0 0
M  V30 BEGIN ATOM
M  V30 1 O 8.6602 -0.4999 0.0 0
M  V30 2 C 7.7942 0.0 0.0 0
M  V30 3 N 7.7942 1.0 0.0 0
M  V30 4 N 6.9282 -0.4999 0.0 0
M  V30 5 C 6.9282 1.5 0.0 0
M  V30 6 C 6.0621 0.0 0.0 0
M  V30 7 O 6.9282 2.5 0.0 0
M  V30 8 C 6.0621 1.0 0.0 0
M  V30 9 O 5.1961 -0.4999 0.0 0
M  V30 10 C 5.1961 1.5 0.0 0
M  V30 11 C 4.3301 1.0 0.0 0
M  V30 12 C 3.4641 1.5 0.0 0
M  V30 13 C 4.3301 0.0 0.0 0
M  V30 14 C 2.598 0.9999 0.0 0
M  V30 15 C 3.4641 -0.4999 0.0 0
M  V30 16 C 2.598 0.0 0.0 0
M  V30 17 O 1.732 -0.5 0.0 0
M  V30 18 C 0.866 0.0 0.0 0
M  V30 19 C 0.0 -0.5 0.0 0
M  V30 20 C -0.866 0.0 0.0 0
M  V30 21 C 0.0 -1.4999 0.0 0
M  V30 22 C -1.732 -0.4999 0.0 0
M  V30 23 C -0.866 -1.9999 0.0 0
M  V30 24 C -1.732 -1.4999 0.0 0
M  V30 END ATOM
M  V30 BEGIN BOND
M  V30 1 2 1 2
M  V30 2 1 2 3
M  V30 3 1 2 4
M  V30 4 1 3 5
M  V30 5 1 4 6
M  V30 6 2 5 7
M  V30 7 1 5 8
M  V30 8 2 6 9
M  V30 9 2 8 10
M  V30 10 1 10 11
M  V30 11 2 11 12
M  V30 12 1 11 13
M  V30 13 1 12 14
M  V30 14 2 13 15
M  V30 15 2 14 16
M  V30 16 1 16 17
M  V30 17 1 17 18
M  V30 18 1 18 19
M  V30 19 2 19 20
M  V30 20 1 19 21
M  V30 21 1 20 22
M  V30 22 2 21 23
M  V30 23 2 22 24
M  V30 24 1 6 8
M  V30 25 1 15 16
M  V30 26 1 23 24
M  V30 END BOND
M  V30 END CTAB
M  END
>  <Molecule ChEMBL ID>
CHEMBL3754507

>  <Smiles>
O=C1NC(=O)C(=Cc2ccc(OCc3ccccc3)cc2)C(=O)N1

>  <IC50_nM>
100

>  <Assay Description>
Binding affinity to GST-tagged human PPAR-gamma receptor by FRET assay

$$$$
CHEMBL372091
Actelion Java MolfileCreator 2.0

  0  0  0  0  0  0              0 V3000
M  V30 BEGIN CTAB
M  V30 COUNTS 35 38 0 0 0
M  V30 BEGIN ATOM
M  V30 1 F 3.8301 0.866 0.0 0
M  V30 2 C 4.3301 0.0 0.0 0
M  V30 3 F 5.1961 0.4999 0.0 0
M  V30 4 F 4.8301 -0.866 0.0 0
M  V30 5 C 3.4641 -0.5 0.0 0
M  V30 6 C 2.598 0.0 0.0 0
M  V30 7 C 3.4641 -1.4999 0.0 0
M  V30 8 C 1.732 -0.5 0.0 0
M  V30 9 C 2.598 -2.0 0.0 0
M  V30 10 O 0.866 0.0 0.0 0
M  V30 11 C 1.732 -1.5 0.0 0
M  V30 12 C 0.0 -0.5 0.0 0
M  V30 13 C -0.9135 -0.0932 0.0 0
M  V30 14 C -0.1045 -1.4945 0.0 0
M  V30 15 N -1.5826 -0.8364 0.0 0
M  V30 16 C -1.1214 0.8848 0.0 0
M  V30 17 C -1.0826 -1.7024 0.0 0
M  V30 18 C 0.5646 -2.2376 0.0 0
M  V30 19 C -2.5771 -0.7318 0.0 0
M  V30 20 O -0.3783 1.554 0.0 0
M  V30 21 O -2.0725 1.1939 0.0 0
M  V30 22 N -1.3916 -2.6534 0.0 0
M  V30 23 C 0.2555 -3.1887 0.0 0
M  V30 24 C -2.9839 0.1816 0.0 0
M  V30 25 C -3.1649 -1.5408 0.0 0
M  V30 26 C -0.7225 -3.3966 0.0 0
M  V30 27 C -3.9784 0.2861 0.0 0
M  V30 28 C -4.1595 -1.4363 0.0 0
M  V30 29 O -1.0315 -4.3476 0.0 0
M  V30 30 C -4.5662 -0.5228 0.0 0
M  V30 31 C -0.3624 -5.0908 0.0 0
M  V30 32 C -5.5607 -0.4182 0.0 0
M  V30 33 C -5.6652 -1.4128 0.0 0
M  V30 34 C -6.5552 -0.3137 0.0 0
M  V30 35 C -5.4562 0.5762 0.0 0
M  V30 END ATOM
M  V30 BEGIN BOND
M  V30 1 1 1 2
M  V30 2 1 2 3
M  V30 3 1 2 4
M  V30 4 1 2 5
M  V30 5 2 5 6
M  V30 6 1 5 7
M  V30 7 1 6 8
M  V30 8 2 7 9
M  V30 9 1 8 10
M  V30 10 2 8 11
M  V30 11 1 10 12
M  V30 12 2 12 13
M  V30 13 1 12 14
M  V30 14 1 13 15
M  V30 15 1 13 16
M  V30 16 2 14 17
M  V30 17 1 14 18
M  V30 18 1 15 19
M  V30 19 2 16 20
M  V30 20 1 16 21
M  V30 21 1 17 22
M  V30 22 2 18 23
M  V30 23 2 19 24
M  V30 24 1 19 25
M  V30 25 2 22 26
M  V30 26 1 24 27
M  V30 27 2 25 28
M  V30 28 1 26 29
M  V30 29 2 27 30
M  V30 30 1 29 31
M  V30 31 1 30 32
M  V30 32 1 32 33
M  V30 33 1 32 34
M  V30 34 1 32 35
M  V30 35 1 9 11
M  V30 36 1 15 17
M  V30 37 1 23 26
M  V30 38 1 28 30
M  V30 END BOND
M  V30 END CTAB
M  END
>  <Molecule ChEMBL ID>
CHEMBL372091

>  <Smiles>
COc1ccc2c(Oc3cccc(C(F)(F)F)c3)c(C(=O)O)n(-c3ccc(C(C)(C)C)cc3)c2n1

>  <IC50_nM>
100

>  <Assay Description>
Inhibitory concentration against human peroxisome proliferator activated receptor gamma in SPA assay

$$$$
CHEMBL254814
Actelion Java MolfileCreator 2.0

  0  0  0  0  0  0              0 V3000
M  V30 BEGIN CTAB
M  V30 COUNTS 36 39 0 0 0
M  V30 BEGIN ATOM
M  V30 1 Cl 9.5262 -2.9999 0.0 0
M  V30 2 C 8.6602 -3.4999 0.0 0
M  V30 3 C 7.7942 -2.9999 0.0 0
M  V30 4 C 8.6602 -4.4999 0.0 0
M  V30 5 O 7.7942 -1.9999 0.0 0
M  V30 6 C 6.9282 -3.4999 0.0 0
M  V30 7 C 7.7942 -4.9999 0.0 0
M  V30 8 C 9.5262 -4.9999 0.0 0
M  V30 9 C 8.6602 -1.4999 0.0 0
M  V30 10 C 6.0621 -2.9999 0.0 0
M  V30 11 C 6.9282 -4.4999 0.0 0
M  V30 12 C 6.0621 -1.9999 0.0 0
M  V30 13 C 5.1961 -3.5 0.0 0
M  V30 14 C 6.0621 -4.9999 0.0 0
M  V30 15 O 6.9282 -1.4999 0.0 0
M  V30 16 C 5.1961 -1.4999 0.0 0
M  V30 17 C 4.3301 -3.0 0.0 0
M  V30 18 C 5.1961 -4.4999 0.0 0
M  V30 19 C 4.3301 -1.9999 0.0 0
M  V30 20 C 5.1961 -0.4999 0.0 0
M  V30 21 O 3.4641 -3.5 0.0 0
M  V30 22 O 4.3301 -5.0 0.0 0
M  V30 23 C 3.4641 -1.4999 0.0 0
M  V30 24 C 4.3301 0.0 0.0 0
M  V30 25 O 2.598 -1.9999 0.0 0
M  V30 26 C 3.4641 -0.5 0.0 0
M  V30 27 C 4.3301 0.9999 0.0 0
M  V30 28 C 2.598 0.0 0.0 0 CFG=1
M  V30 29 O 3.4641 1.4999 0.0 0
M  V30 30 O 5.1961 1.5 0.0 0
M  V30 31 O 1.732 -0.5 0.0 0
M  V30 32 C 2.598 1.0 0.0 0
M  V30 33 C 5.1961 2.5 0.0 0
M  V30 34 C 0.866 0.0 0.0 0
M  V30 35 O 0.866 1.0 0.0 0
M  V30 36 C 0.0 -0.5 0.0 0
M  V30 END ATOM
M  V30 BEGIN BOND
M  V30 1 1 1 2
M  V30 2 2 2 3
M  V30 3 1 2 4
M  V30 4 1 3 5
M  V30 5 1 3 6
M  V30 6 2 4 7
M  V30 7 1 4 8
M  V30 8 1 5 9
M  V30 9 2 6 10
M  V30 10 1 6 11
M  V30 11 1 10 12
M  V30 12 1 10 13
M  V30 13 2 11 14
M  V30 14 2 12 15
M  V30 15 1 12 16
M  V30 16 1 13 17
M  V30 17 2 13 18
M  V30 18 2 16 19
M  V30 19 1 16 20
M  V30 20 2 17 21
M  V30 21 1 18 22
M  V30 22 1 19 23
M  V30 23 2 20 24
M  V30 24 1 23 25
M  V30 25 2 23 26
M  V30 26 1 24 27
M  V30 27 1 26 28
M  V30 28 2 27 29
M  V30 29 1 27 30
M  V30 30 1 28 31
M  V30 31 1 28 32 CFG=1
M  V30 32 1 30 33
M  V30 33 1 31 34
M  V30 34 2 34 35
M  V30 35 1 34 36
M  V30 36 1 7 11
M  V30 37 1 14 18
M  V30 38 1 17 19
M  V30 39 1 24 26
M  V30 END BOND
M  V30 BEGIN COLLECTION
M  V30 MDLV30/STERAC1 ATOMS=(1 28)
M  V30 END COLLECTION
M  V30 END CTAB
M  END
>  <Molecule ChEMBL ID>
CHEMBL254814

>  <Smiles>
COC(=O)c1cc2c(c(O)c1C(C)OC(C)=O)C(=O)c1c(O)cc3cc(C)c(Cl)c(OC)c3c1C2=O

>  <IC50_nM>
100

>  <Assay Description>
Antagonist activity at human PPARgamma receptor assessed as rosiglitazone-induced receptor activation by alphascreen assay

$$$$
CHEMBL3695907
Actelion Java MolfileCreator 2.0

  0  0  0  0  0  0              0 V3000
M  V30 BEGIN CTAB
M  V30 COUNTS 37 41 0 0 0
M  V30 BEGIN ATOM
M  V30 1 O 6.2419 7.3426 0.0 0
M  V30 2 C 5.9328 6.3916 0.0 0
M  V30 3 O 4.9547 6.1837 0.0 0
M  V30 4 C 6.602 5.6484 0.0 0
M  V30 5 C 6.293 4.6974 0.0 0
M  V30 6 C 7.5801 5.8563 0.0 0
M  V30 7 C 6.9621 3.9542 0.0 0
M  V30 8 C 8.2493 5.1132 0.0 0
M  V30 9 C 7.9402 4.1621 0.0 0
M  V30 10 C 8.6094 3.419 0.0 0
M  V30 11 C 8.3003 2.4679 0.0 0
M  V30 12 C 9.5875 3.6269 0.0 0
M  V30 13 C 8.9695 1.7248 0.0 0
M  V30 14 C 7.3222 2.26 0.0 0
M  V30 15 C 10.2566 2.8838 0.0 0
M  V30 16 C 9.9476 1.9327 0.0 0
M  V30 17 N 7.0132 1.309 0.0 0
M  V30 18 C 6.0621 0.9999 0.0 0
M  V30 19 C 7.601 0.5 0.0 0
M  V30 20 C 6.0621 0.0 0.0 0
M  V30 21 C 5.1961 1.4999 0.0 0
M  V30 22 C 7.0132 -0.309 0.0 0
M  V30 23 C 5.1961 -0.5 0.0 0
M  V30 24 C 4.3301 0.9999 0.0 0
M  V30 25 C 4.3301 0.0 0.0 0
M  V30 26 C 3.4641 -0.5 0.0 0
M  V30 27 O 3.4641 -1.5 0.0 0
M  V30 28 N 2.598 0.0 0.0 0
M  V30 29 C 1.732 -0.5 0.0 0 CFG=2
M  V30 30 C 1.732 -1.5 0.0 0
M  V30 31 C 0.866 0.0 0.0 0
M  V30 32 C 0.866 -1.9999 0.0 0
M  V30 33 C 2.598 -2.0 0.0 0
M  V30 34 C 0.0 -0.5 0.0 0
M  V30 35 C 0.866 -2.9999 0.0 0
M  V30 36 C 2.598 -3.0 0.0 0
M  V30 37 C 1.732 -3.5 0.0 0
M  V30 END ATOM
M  V30 BEGIN BOND
M  V30 1 2 1 2
M  V30 2 1 2 3
M  V30 3 1 2 4
M  V30 4 2 4 5
M  V30 5 1 4 6
M  V30 6 1 5 7
M  V30 7 2 6 8
M  V30 8 2 7 9
M  V30 9 1 9 10
M  V30 10 2 10 11
M  V30 11 1 10 12
M  V30 12 1 11 13
M  V30 13 1 11 14
M  V30 14 2 12 15
M  V30 15 2 13 16
M  V30 16 1 14 17
M  V30 17 1 17 18
M  V30 18 1 17 19
M  V30 19 2 18 20
M  V30 20 1 18 21
M  V30 21 2 19 22
M  V30 22 1 20 23
M  V30 23 2 21 24
M  V30 24 2 23 25
M  V30 25 1 25 26
M  V30 26 2 26 27
M  V30 27 1 26 28
M  V30 28 1 29 28 CFG=3
M  V30 29 1 29 30
M  V30 30 1 29 31
M  V30 31 2 30 32
M  V30 32 1 30 33
M  V30 33 1 31 34
M  V30 34 1 32 35
M  V30 35 2 33 36
M  V30 36 2 35 37
M  V30 37 1 8 9
M  V30 38 1 15 16
M  V30 39 1 20 22
M  V30 40 1 24 25
M  V30 41 1 36 37
M  V30 END BOND
M  V30 BEGIN COLLECTION
M  V30 MDLV30/STEABS ATOMS=(1 29)
M  V30 END COLLECTION
M  V30 END CTAB
M  END
>  <Molecule ChEMBL ID>
CHEMBL3695907

>  <Smiles>
CC[C@H](NC(=O)c1ccc2c(ccn2Cc2ccccc2-c2ccc(C(=O)O)cc2)c1)c1ccccc1

>  <IC50_nM>
100

>  <Assay Description>
Lanthascreen Competitive Binding Assay: The assay was performed according to manufacturer protocol. A mixture of nM GST-PPARG-LBD, 5 nM Tb-GST-antibody, 5 nM Fluormone Pan-PPAR Green, and serial dilutions of the experimental compound, beginning at 10 ׬M downwards, was added to wells of black 384-well low-volume plates (Greiner) to a total volume of 18 ׬L. All dilutions were made in TR-FRET assay buffer C. DMSO at 2% final concentration was used as a no-ligand control. Experiment was performed in triplicate, and incubated for 2 hours in the dark prior to assay read in Perkin Elmer ViewLux ultra HTS microplate reader. FRET signal was measured by excitation at 340 nm and emission at 520 nm for fluorescein and 490 nm for terbium. Fold change over DMSO was calculated using GraphPad Prism Software (La Jolla, Calif.) by calculating 520 nm/490 nm ratio. Graphs were plotted as fold change of FRET signal for compound treatment over DMSO-only control.

$$$$
CHEMBL3678124
Actelion Java MolfileCreator 2.0

  0  0  0  0  0  0              0 V3000
M  V30 BEGIN CTAB
M  V30 COUNTS 39 42 0 0 0
M  V30 BEGIN ATOM
M  V30 1 O 14.7851 -8.4139 0.0 0
M  V30 2 C 13.3178 -8.7258 0.0 0
M  V30 3 N 12.8543 -10.1524 0.0 0
M  V30 4 C 12.3141 -7.6111 0.0 0
M  V30 5 C 11.3871 -10.4642 0.0 0 CFG=2
M  V30 6 C 10.8469 -7.9229 0.0 0
M  V30 7 C 12.7777 -6.1845 0.0 0
M  V30 8 C 10.9236 -11.8908 0.0 0
M  V30 9 C 10.3834 -9.3495 0.0 0
M  V30 10 C 9.8432 -6.8082 0.0 0
M  V30 11 C 11.774 -5.0698 0.0 0
M  V30 12 C 11.9273 -13.0055 0.0 0
M  V30 13 C 9.4563 -12.2027 0.0 0
M  V30 14 C 10.3068 -5.3816 0.0 0
M  V30 15 C 8.3432 -6.8082 0.0 0
M  V30 16 C 11.4637 -14.4321 0.0 0
M  V30 17 C 8.9928 -13.6293 0.0 0
M  V30 18 N 9.0932 -4.5 0.0 0
M  V30 19 C 7.8797 -5.3816 0.0 0
M  V30 20 C 7.4615 -8.0217 0.0 0
M  V30 21 C 9.9965 -14.744 0.0 0
M  V30 22 C 12.4674 -15.5469 0.0 0
M  V30 23 C 9.0932 -3.0 0.0 0
M  V30 24 C 6.4531 -4.9181 0.0 0
M  V30 25 C 13.9347 -15.235 0.0 0
M  V30 26 C 12.0039 -16.9734 0.0 0
M  V30 27 C 7.7942 -2.25 0.0 0
M  V30 28 C 7.7942 -0.75 0.0 0
M  V30 29 C 6.4951 -3.0 0.0 0
M  V30 30 C 6.4951 0.0 0.0 0
M  V30 31 C 5.1961 -2.25 0.0 0
M  V30 32 C 5.1961 -0.75 0.0 0
M  V30 33 O 3.8971 0.0 0.0 0
M  V30 34 C 2.598 -0.75 0.0 0
M  V30 35 C 1.299 0.0 0.0 0
M  V30 36 C 1.848 -2.049 0.0 0
M  V30 37 C 3.348 -2.049 0.0 0
M  V30 38 O 1.299 1.5 0.0 0
M  V30 39 O 0.0 -0.75 0.0 0
M  V30 END ATOM
M  V30 BEGIN BOND
M  V30 1 2 1 2
M  V30 2 1 2 3
M  V30 3 1 2 4
M  V30 4 1 3 5
M  V30 5 2 4 6
M  V30 6 1 4 7
M  V30 7 1 5 8
M  V30 8 1 5 9 CFG=3
M  V30 9 1 6 10
M  V30 10 2 7 11
M  V30 11 2 8 12
M  V30 12 1 8 13
M  V30 13 2 10 14
M  V30 14 1 10 15
M  V30 15 1 12 16
M  V30 16 2 13 17
M  V30 17 1 14 18
M  V30 18 2 15 19
M  V30 19 1 15 20
M  V30 20 2 16 21
M  V30 21 1 16 22
M  V30 22 1 18 23
M  V30 23 1 19 24
M  V30 24 1 22 25
M  V30 25 1 22 26
M  V30 26 1 23 27
M  V30 27 2 27 28
M  V30 28 1 27 29
M  V30 29 1 28 30
M  V30 30 2 29 31
M  V30 31 2 30 32
M  V30 32 1 32 33
M  V30 33 1 33 34
M  V30 34 1 34 35
M  V30 35 1 34 36
M  V30 36 1 34 37
M  V30 37 2 35 38
M  V30 38 1 35 39
M  V30 39 1 11 14
M  V30 40 1 17 21
M  V30 41 1 18 19
M  V30 42 1 31 32
M  V30 END BOND
M  V30 BEGIN COLLECTION
M  V30 MDLV30/STEABS ATOMS=(1 5)
M  V30 END COLLECTION
M  V30 END CTAB
M  END
>  <Molecule ChEMBL ID>
CHEMBL3678124

>  <Smiles>
Cc1c(C)n(Cc2ccc(OC(C)(C)C(=O)O)cc2)c2ccc(C(=O)N[C@@H](C)c3cccc(C(C)C)c3)cc12

>  <IC50_nM>
101

>  <Assay Description>
Lanthascreen Competitive Binding Assay: The assay was performed according to manufacturer protocol. A mixture of 5 nM GST-PPARG-LBD, 5 nM Tb-GST-antibody, 5 nM Fluormone Pan- PPAR Green, and serial dilutions of the experimental compound, beginning at 10 ׬� downwards, was added to wells of black 384-well low- volume plates (Greiner) to a total volume of 18 xL. All dilutions were made in TR-FRET assay buffer C. DMSO at 2% final concentration was used as a no-ligand control. Experiment was performed in triplicate, and incubated for 2 hours in the dark prior to assay read in Perkin Elmer ViewLux ultra HTS microplate reader. FRET signal was measured by excitation at 340 nm and emission at 520 nm for fluorescein and 490 nm for terbium.

$$$$
CHEMBL207103
Actelion Java MolfileCreator 2.0

  0  0  0  0  0  0              0 V3000
M  V30 BEGIN CTAB
M  V30 COUNTS 31 33 0 0 0
M  V30 BEGIN ATOM
M  V30 1 F 9.1393 -2.451 0.0 0
M  V30 2 C 8.1882 -2.76 0.0 0
M  V30 3 F 8.4972 -3.7111 0.0 0
M  V30 4 F 7.2372 -3.069 0.0 0
M  V30 5 C 7.8792 -1.809 0.0 0
M  V30 6 N 8.467 -1.0 0.0 0
M  V30 7 C 6.9282 -1.5 0.0 0
M  V30 8 O 7.8792 -0.1909 0.0 0
M  V30 9 C 6.9282 -0.5 0.0 0
M  V30 10 C 6.0621 -2.0 0.0 0
M  V30 11 C 6.0621 0.0 0.0 0
M  V30 12 C 5.1961 -1.4999 0.0 0
M  V30 13 C 5.1961 -0.5 0.0 0
M  V30 14 C 6.0621 0.9999 0.0 0
M  V30 15 O 4.3301 0.0 0.0 0
M  V30 16 C 6.9282 1.4999 0.0 0
M  V30 17 C 3.4641 -0.5 0.0 0
M  V30 18 C 6.9282 2.4999 0.0 0
M  V30 19 C 2.598 0.0 0.0 0
M  V30 20 C 1.732 -0.5 0.0 0
M  V30 21 N 0.866 0.0 0.0 0
M  V30 22 C 0.0 -0.5 0.0 0
M  V30 23 C -0.866 0.0 0.0 0
M  V30 24 C 0.0 -1.4999 0.0 0
M  V30 25 C -1.732 -0.4999 0.0 0
M  V30 26 C -0.866 -1.9999 0.0 0
M  V30 27 C -1.732 -1.4999 0.0 0
M  V30 28 C -2.598 -1.9999 0.0 0
M  V30 29 C -3.4641 -1.4999 0.0 0
M  V30 30 O -3.4641 -0.4999 0.0 0
M  V30 31 O -4.3301 -1.9999 0.0 0
M  V30 END ATOM
M  V30 BEGIN BOND
M  V30 1 1 1 2
M  V30 2 1 2 3
M  V30 3 1 2 4
M  V30 4 1 2 5
M  V30 5 2 5 6
M  V30 6 1 5 7
M  V30 7 1 6 8
M  V30 8 2 7 9
M  V30 9 1 7 10
M  V30 10 1 9 11
M  V30 11 2 10 12
M  V30 12 2 11 13
M  V30 13 1 11 14
M  V30 14 1 13 15
M  V30 15 1 14 16
M  V30 16 1 15 17
M  V30 17 1 16 18
M  V30 18 1 17 19
M  V30 19 1 19 20
M  V30 20 1 20 21
M  V30 21 1 21 22
M  V30 22 2 22 23
M  V30 23 1 22 24
M  V30 24 1 23 25
M  V30 25 2 24 26
M  V30 26 2 25 27
M  V30 27 1 27 28
M  V30 28 1 28 29
M  V30 29 2 29 30
M  V30 30 1 29 31
M  V30 31 1 8 9
M  V30 32 1 12 13
M  V30 33 1 26 27
M  V30 END BOND
M  V30 END CTAB
M  END
>  <Molecule ChEMBL ID>
CHEMBL207103

>  <Smiles>
CCCc1c(OCCCNc2ccc(CC(=O)O)cc2)ccc2c(C(F)(F)F)noc12

>  <IC50_nM>
102

>  <Assay Description>
Agonist activity at PPARgamma

$$$$
CHEMBL372850
Actelion Java MolfileCreator 2.0

  0  0  0  0  0  0              0 V3000
M  V30 BEGIN CTAB
M  V30 COUNTS 29 32 0 0 0
M  V30 BEGIN ATOM
M  V30 1 O 1.732 -0.5 0.0 0
M  V30 2 C 0.866 0.0 0.0 0
M  V30 3 O 0.866 1.0 0.0 0
M  V30 4 C 0.0 -0.5 0.0 0
M  V30 5 N -0.9135 -0.0932 0.0 0
M  V30 6 C -0.1045 -1.4945 0.0 0
M  V30 7 C -1.1214 0.8848 0.0 0
M  V30 8 C -1.5826 -0.8364 0.0 0
M  V30 9 O 0.6386 -2.1636 0.0 0
M  V30 10 C -1.0826 -1.7024 0.0 0
M  V30 11 C -0.3783 1.554 0.0 0
M  V30 12 C -2.0725 1.1939 0.0 0
M  V30 13 C -2.5826 -0.8364 0.0 0
M  V30 14 C 0.4307 -3.1418 0.0 0
M  V30 15 C -1.5826 -2.5684 0.0 0
M  V30 16 C -0.5862 2.5321 0.0 0
M  V30 17 C -2.2804 2.172 0.0 0
M  V30 18 C -3.0826 -1.7024 0.0 0
M  V30 19 C 1.1738 -3.8109 0.0 0
M  V30 20 C -0.5203 -3.4508 0.0 0
M  V30 21 C -2.5826 -2.5684 0.0 0
M  V30 22 C -1.5372 2.8411 0.0 0
M  V30 23 C 0.1569 3.2012 0.0 0
M  V30 24 C 0.9659 -4.789 0.0 0
M  V30 25 C -0.7282 -4.4289 0.0 0
M  V30 26 C 1.1079 2.8922 0.0 0
M  V30 27 C -0.0509 4.1794 0.0 0
M  V30 28 O 1.709 -5.4582 0.0 0
M  V30 29 C 0.0148 -5.098 0.0 0
M  V30 END ATOM
M  V30 BEGIN BOND
M  V30 1 2 1 2
M  V30 2 1 2 3
M  V30 3 1 2 4
M  V30 4 1 4 5
M  V30 5 2 4 6
M  V30 6 1 5 7
M  V30 7 1 5 8
M  V30 8 1 6 9
M  V30 9 1 6 10
M  V30 10 2 7 11
M  V30 11 1 7 12
M  V30 12 1 8 13
M  V30 13 1 9 14
M  V30 14 1 10 15
M  V30 15 1 11 16
M  V30 16 2 12 17
M  V30 17 2 13 18
M  V30 18 2 14 19
M  V30 19 1 14 20
M  V30 20 2 15 21
M  V30 21 2 16 22
M  V30 22 1 16 23
M  V30 23 1 19 24
M  V30 24 2 20 25
M  V30 25 1 23 26
M  V30 26 1 23 27
M  V30 27 1 24 28
M  V30 28 2 24 29
M  V30 29 2 8 10
M  V30 30 1 17 22
M  V30 31 1 18 21
M  V30 32 1 25 29
M  V30 END BOND
M  V30 END CTAB
M  END
>  <Molecule ChEMBL ID>
CHEMBL372850

>  <Smiles>
CC(C)c1cccc(-n2c(C(=O)O)c(Oc3cccc(O)c3)c3ccccc32)c1

>  <IC50_nM>
102

>  <Assay Description>
Inhibitory concentration against human peroxisome proliferator activated receptor gamma in SPA assay

$$$$
CHEMBL207103
Actelion Java MolfileCreator 2.0

  0  0  0  0  0  0              0 V3000
M  V30 BEGIN CTAB
M  V30 COUNTS 31 33 0 0 0
M  V30 BEGIN ATOM
M  V30 1 F 9.1393 -2.451 0.0 0
M  V30 2 C 8.1882 -2.76 0.0 0
M  V30 3 F 8.4972 -3.7111 0.0 0
M  V30 4 F 7.2372 -3.069 0.0 0
M  V30 5 C 7.8792 -1.809 0.0 0
M  V30 6 N 8.467 -1.0 0.0 0
M  V30 7 C 6.9282 -1.5 0.0 0
M  V30 8 O 7.8792 -0.1909 0.0 0
M  V30 9 C 6.9282 -0.5 0.0 0
M  V30 10 C 6.0621 -2.0 0.0 0
M  V30 11 C 6.0621 0.0 0.0 0
M  V30 12 C 5.1961 -1.4999 0.0 0
M  V30 13 C 5.1961 -0.5 0.0 0
M  V30 14 C 6.0621 0.9999 0.0 0
M  V30 15 O 4.3301 0.0 0.0 0
M  V30 16 C 6.9282 1.4999 0.0 0
M  V30 17 C 3.4641 -0.5 0.0 0
M  V30 18 C 6.9282 2.4999 0.0 0
M  V30 19 C 2.598 0.0 0.0 0
M  V30 20 C 1.732 -0.5 0.0 0
M  V30 21 N 0.866 0.0 0.0 0
M  V30 22 C 0.0 -0.5 0.0 0
M  V30 23 C -0.866 0.0 0.0 0
M  V30 24 C 0.0 -1.4999 0.0 0
M  V30 25 C -1.732 -0.4999 0.0 0
M  V30 26 C -0.866 -1.9999 0.0 0
M  V30 27 C -1.732 -1.4999 0.0 0
M  V30 28 C -2.598 -1.9999 0.0 0
M  V30 29 C -3.4641 -1.4999 0.0 0
M  V30 30 O -3.4641 -0.4999 0.0 0
M  V30 31 O -4.3301 -1.9999 0.0 0
M  V30 END ATOM
M  V30 BEGIN BOND
M  V30 1 1 1 2
M  V30 2 1 2 3
M  V30 3 1 2 4
M  V30 4 1 2 5
M  V30 5 2 5 6
M  V30 6 1 5 7
M  V30 7 1 6 8
M  V30 8 2 7 9
M  V30 9 1 7 10
M  V30 10 1 9 11
M  V30 11 2 10 12
M  V30 12 2 11 13
M  V30 13 1 11 14
M  V30 14 1 13 15
M  V30 15 1 14 16
M  V30 16 1 15 17
M  V30 17 1 16 18
M  V30 18 1 17 19
M  V30 19 1 19 20
M  V30 20 1 20 21
M  V30 21 1 21 22
M  V30 22 2 22 23
M  V30 23 1 22 24
M  V30 24 1 23 25
M  V30 25 2 24 26
M  V30 26 2 25 27
M  V30 27 1 27 28
M  V30 28 1 28 29
M  V30 29 2 29 30
M  V30 30 1 29 31
M  V30 31 1 8 9
M  V30 32 1 12 13
M  V30 33 1 26 27
M  V30 END BOND
M  V30 END CTAB
M  END
>  <Molecule ChEMBL ID>
CHEMBL207103

>  <Smiles>
CCCc1c(OCCCNc2ccc(CC(=O)O)cc2)ccc2c(C(F)(F)F)noc12

>  <IC50_nM>
102

>  <Assay Description>
Inhibition of PPAR gamma

$$$$
CHEMBL207103
Actelion Java MolfileCreator 2.0

  0  0  0  0  0  0              0 V3000
M  V30 BEGIN CTAB
M  V30 COUNTS 31 33 0 0 0
M  V30 BEGIN ATOM
M  V30 1 F 9.1393 -2.451 0.0 0
M  V30 2 C 8.1882 -2.76 0.0 0
M  V30 3 F 8.4972 -3.7111 0.0 0
M  V30 4 F 7.2372 -3.069 0.0 0
M  V30 5 C 7.8792 -1.809 0.0 0
M  V30 6 N 8.467 -1.0 0.0 0
M  V30 7 C 6.9282 -1.5 0.0 0
M  V30 8 O 7.8792 -0.1909 0.0 0
M  V30 9 C 6.9282 -0.5 0.0 0
M  V30 10 C 6.0621 -2.0 0.0 0
M  V30 11 C 6.0621 0.0 0.0 0
M  V30 12 C 5.1961 -1.4999 0.0 0
M  V30 13 C 5.1961 -0.5 0.0 0
M  V30 14 C 6.0621 0.9999 0.0 0
M  V30 15 O 4.3301 0.0 0.0 0
M  V30 16 C 6.9282 1.4999 0.0 0
M  V30 17 C 3.4641 -0.5 0.0 0
M  V30 18 C 6.9282 2.4999 0.0 0
M  V30 19 C 2.598 0.0 0.0 0
M  V30 20 C 1.732 -0.5 0.0 0
M  V30 21 N 0.866 0.0 0.0 0
M  V30 22 C 0.0 -0.5 0.0 0
M  V30 23 C -0.866 0.0 0.0 0
M  V30 24 C 0.0 -1.4999 0.0 0
M  V30 25 C -1.732 -0.4999 0.0 0
M  V30 26 C -0.866 -1.9999 0.0 0
M  V30 27 C -1.732 -1.4999 0.0 0
M  V30 28 C -2.598 -1.9999 0.0 0
M  V30 29 C -3.4641 -1.4999 0.0 0
M  V30 30 O -3.4641 -0.4999 0.0 0
M  V30 31 O -4.3301 -1.9999 0.0 0
M  V30 END ATOM
M  V30 BEGIN BOND
M  V30 1 1 1 2
M  V30 2 1 2 3
M  V30 3 1 2 4
M  V30 4 1 2 5
M  V30 5 2 5 6
M  V30 6 1 5 7
M  V30 7 1 6 8
M  V30 8 2 7 9
M  V30 9 1 7 10
M  V30 10 1 9 11
M  V30 11 2 10 12
M  V30 12 2 11 13
M  V30 13 1 11 14
M  V30 14 1 13 15
M  V30 15 1 14 16
M  V30 16 1 15 17
M  V30 17 1 16 18
M  V30 18 1 17 19
M  V30 19 1 19 20
M  V30 20 1 20 21
M  V30 21 1 21 22
M  V30 22 2 22 23
M  V30 23 1 22 24
M  V30 24 1 23 25
M  V30 25 2 24 26
M  V30 26 2 25 27
M  V30 27 1 27 28
M  V30 28 1 28 29
M  V30 29 2 29 30
M  V30 30 1 29 31
M  V30 31 1 8 9
M  V30 32 1 12 13
M  V30 33 1 26 27
M  V30 END BOND
M  V30 END CTAB
M  END
>  <Molecule ChEMBL ID>
CHEMBL207103

>  <Smiles>
CCCc1c(OCCCNc2ccc(CC(=O)O)cc2)ccc2c(C(F)(F)F)noc12

>  <IC50_nM>
102.09

>  <Assay Description>
Agonist activity at PPARgamma

$$$$
CHEMBL121
Actelion Java MolfileCreator 2.0

  0  0  0  0  0  0              0 V3000
M  V30 BEGIN CTAB
M  V30 COUNTS 25 27 0 0 0
M  V30 BEGIN ATOM
M  V30 1 S 7.8987 0.0054 0.0 0
M  V30 2 C 8.8769 -0.2024 0.0 0
M  V30 3 C 7.7942 0.9999 0.0 0 CFG=2
M  V30 4 O 9.2836 -1.1159 0.0 0
M  V30 5 N 9.3769 0.6635 0.0 0
M  V30 6 C 8.7077 1.4067 0.0 0
M  V30 7 C 6.9282 1.4999 0.0 0
M  V30 8 O 8.9156 2.3848 0.0 0
M  V30 9 C 6.0621 0.9999 0.0 0
M  V30 10 C 5.1961 1.4999 0.0 0
M  V30 11 C 6.0621 0.0 0.0 0
M  V30 12 C 4.3301 0.9999 0.0 0
M  V30 13 C 5.1961 -0.5 0.0 0
M  V30 14 C 4.3301 0.0 0.0 0
M  V30 15 O 3.4641 -0.5 0.0 0
M  V30 16 C 2.598 0.0 0.0 0
M  V30 17 C 1.732 -0.5 0.0 0
M  V30 18 N 0.866 0.0 0.0 0
M  V30 19 C 0.866 1.0 0.0 0
M  V30 20 C 0.0 -0.5 0.0 0
M  V30 21 N 1.732 1.4999 0.0 0
M  V30 22 C 0.0 1.4999 0.0 0
M  V30 23 C 1.732 2.5 0.0 0
M  V30 24 C 0.0 2.5 0.0 0
M  V30 25 C 0.866 3.0 0.0 0
M  V30 END ATOM
M  V30 BEGIN BOND
M  V30 1 1 1 2
M  V30 2 1 1 3
M  V30 3 2 2 4
M  V30 4 1 2 5
M  V30 5 1 3 6
M  V30 6 1 3 7 CFG=1
M  V30 7 2 6 8
M  V30 8 1 7 9
M  V30 9 2 9 10
M  V30 10 1 9 11
M  V30 11 1 10 12
M  V30 12 2 11 13
M  V30 13 2 12 14
M  V30 14 1 14 15
M  V30 15 1 15 16
M  V30 16 1 16 17
M  V30 17 1 17 18
M  V30 18 1 18 19
M  V30 19 1 18 20
M  V30 20 2 19 21
M  V30 21 1 19 22
M  V30 22 1 21 23
M  V30 23 2 22 24
M  V30 24 2 23 25
M  V30 25 1 5 6
M  V30 26 1 13 14
M  V30 27 1 24 25
M  V30 END BOND
M  V30 BEGIN COLLECTION
M  V30 MDLV30/STERAC1 ATOMS=(1 3)
M  V30 END COLLECTION
M  V30 END CTAB
M  END
>  <Molecule ChEMBL ID>
CHEMBL121

>  <Smiles>
CN(CCOc1ccc(CC2SC(=O)NC2=O)cc1)c1ccccn1

>  <IC50_nM>
103

>  <Assay Description>
Inhibition of fluormone PPARgamma Green binding to recombinant N-terminal GST-tagged human PPARgamma LBD by fluorescence polarization assay

$$$$
CHEMBL3699376
Actelion Java MolfileCreator 2.0

  0  0  0  0  0  0              0 V3000
M  V30 BEGIN CTAB
M  V30 COUNTS 40 44 0 0 0
M  V30 BEGIN ATOM
M  V30 1 Cl 2.598 -1.9999 0.0 0
M  V30 2 C 3.4641 -1.4999 0.0 0
M  V30 3 C 4.3301 -1.9999 0.0 0
M  V30 4 C 3.4641 -0.5 0.0 0
M  V30 5 C 5.1961 -1.4999 0.0 0
M  V30 6 C 4.3301 -2.9999 0.0 0
M  V30 7 C 4.3301 0.0 0.0 0
M  V30 8 C 2.598 0.0 0.0 0 CFG=1
M  V30 9 C 5.1961 -0.4999 0.0 0
M  V30 10 F 5.3301 -2.9999 0.0 0
M  V30 11 F 4.3301 -3.9999 0.0 0
M  V30 12 F 3.3301 -3.0 0.0 0
M  V30 13 N 1.732 -0.5 0.0 0
M  V30 14 C 2.598 1.0 0.0 0
M  V30 15 C 0.866 0.0 0.0 0
M  V30 16 O 0.866 1.0 0.0 0
M  V30 17 C 0.0 -0.5 0.0 0
M  V30 18 C 0.0 -1.4999 0.0 0
M  V30 19 C -0.866 0.0 0.0 0
M  V30 20 C -0.866 -1.9999 0.0 0
M  V30 21 C -1.732 -0.4999 0.0 0
M  V30 22 C -1.732 -1.4999 0.0 0
M  V30 23 C -1.0739 -2.9781 0.0 0
M  V30 24 N -2.4751 -2.1691 0.0 0
M  V30 25 C -2.0684 -3.0826 0.0 0
M  V30 26 C -0.4048 -3.7212 0.0 0
M  V30 27 C -3.4533 -1.9612 0.0 0
M  V30 28 C -2.5684 -3.9487 0.0 0
M  V30 29 C -4.1224 -2.7043 0.0 0
M  V30 30 C -5.1006 -2.4964 0.0 0
M  V30 31 C -3.8134 -3.6554 0.0 0
M  V30 32 C -5.7697 -3.2395 0.0 0
M  V30 33 C -4.4825 -4.3985 0.0 0
M  V30 34 C -5.4607 -4.1906 0.0 0
M  V30 35 C -6.1298 -4.9337 0.0 0
M  V30 36 C -7.108 -4.7258 0.0 0
M  V30 37 C -5.8208 -5.8848 0.0 0
M  V30 38 C -7.7771 -5.469 0.0 0
M  V30 39 C -6.4899 -6.6279 0.0 0
M  V30 40 C -7.4681 -6.42 0.0 0
M  V30 END ATOM
M  V30 BEGIN BOND
M  V30 1 1 1 2
M  V30 2 2 2 3
M  V30 3 1 2 4
M  V30 4 1 3 5
M  V30 5 1 3 6
M  V30 6 2 4 7
M  V30 7 1 4 8
M  V30 8 2 5 9
M  V30 9 1 6 10
M  V30 10 1 6 11
M  V30 11 1 6 12
M  V30 12 1 8 13
M  V30 13 1 8 14 CFG=1
M  V30 14 1 13 15
M  V30 15 2 15 16
M  V30 16 1 15 17
M  V30 17 2 17 18
M  V30 18 1 17 19
M  V30 19 1 18 20
M  V30 20 2 19 21
M  V30 21 2 20 22
M  V30 22 1 20 23
M  V30 23 1 22 24
M  V30 24 2 23 25
M  V30 25 1 23 26
M  V30 26 1 24 27
M  V30 27 1 25 28
M  V30 28 1 27 29
M  V30 29 2 29 30
M  V30 30 1 29 31
M  V30 31 1 30 32
M  V30 32 2 31 33
M  V30 33 2 32 34
M  V30 34 1 34 35
M  V30 35 2 35 36
M  V30 36 1 35 37
M  V30 37 1 36 38
M  V30 38 2 37 39
M  V30 39 2 38 40
M  V30 40 1 7 9
M  V30 41 1 21 22
M  V30 42 1 24 25
M  V30 43 1 33 34
M  V30 44 1 39 40
M  V30 END BOND
M  V30 BEGIN COLLECTION
M  V30 MDLV30/STEABS ATOMS=(1 8)
M  V30 END COLLECTION
M  V30 END CTAB
M  END
>  <Molecule ChEMBL ID>
CHEMBL3699376

>  <Smiles>
Cc1c(C)n(Cc2ccc(-c3ccccc3)cc2)c2ccc(C(=O)N[C@@H](C)c3cccc(C(F)(F)F)c3Cl)cc12

>  <IC50_nM>
103

>  <Assay Description>
Lanthascreen Competitive Binding Assay: The assay was performed according to manufacturer protocol. A mixture of nM GST-PPARG-LBD, 5 nM Tb-GST-antibody, 5 nM Fluormone Pan-PPAR Green, and serial dilutions of the experimental compound, beginning at 10 ׬M downwards, was added to wells of black 384-well low-volume plates (Greiner) to a total volume of 18 ׬L. All dilutions were made in TR-FRET assay buffer C. DMSO at 2% final concentration was used as a no-ligand control. Experiment was performed in triplicate, and incubated for 2 hours in the dark prior to assay read in Perkin Elmer ViewLux ultra HTS microplate reader. FRET signal was measured by excitation at 340 nm and emission at 520 nm for fluorescein and 490 nm for terbium. Fold change over DMSO was calculated using GraphPad Prism Software (La Jolla, Calif.) by calculating 520 nm/490 nm ratio. Graphs were plotted as fold change of FRET signal for compound treatment over DMSO-only control.

$$$$
CHEMBL198493
Actelion Java MolfileCreator 2.0

  0  0  0  0  0  0              0 V3000
M  V30 BEGIN CTAB
M  V30 COUNTS 32 35 0 0 0
M  V30 BEGIN ATOM
M  V30 1 Cl 5.8147 -1.7024 0.0 0
M  V30 2 C 4.8147 -1.7024 0.0 0
M  V30 3 N 4.3147 -0.8364 0.0 0
M  V30 4 C 4.3147 -2.5684 0.0 0
M  V30 5 C 3.3147 -0.8364 0.0 0
M  V30 6 C 3.3147 -2.5684 0.0 0
M  V30 7 N 2.6455 -0.0932 0.0 0
M  V30 8 C 2.8147 -1.7024 0.0 0
M  V30 9 C 2.8535 0.8848 0.0 0
M  V30 10 C 1.732 -0.5 0.0 0
M  V30 11 C 1.8365 -1.4945 0.0 0
M  V30 12 C 3.8045 1.1939 0.0 0
M  V30 13 C 2.1103 1.554 0.0 0
M  V30 14 C 0.866 0.0 0.0 0
M  V30 15 O 1.0934 -2.1636 0.0 0
M  V30 16 C 4.0124 2.172 0.0 0
M  V30 17 C 2.3182 2.5321 0.0 0
M  V30 18 O 0.866 1.0 0.0 0
M  V30 19 O 0.0 -0.5 0.0 0
M  V30 20 C 1.3013 -3.1418 0.0 0
M  V30 21 C 3.2693 2.8411 0.0 0
M  V30 22 C 0.5582 -3.8109 0.0 0
M  V30 23 C 2.2524 -3.4508 0.0 0
M  V30 24 C 3.4772 3.8193 0.0 0
M  V30 25 C 0.7661 -4.789 0.0 0
M  V30 26 C 2.4603 -4.4289 0.0 0
M  V30 27 C 2.499 4.0272 0.0 0
M  V30 28 C 3.6851 4.7974 0.0 0
M  V30 29 C 4.4553 3.6114 0.0 0
M  V30 30 O 0.0229 -5.4582 0.0 0
M  V30 31 C 1.7171 -5.098 0.0 0
M  V30 32 C 0.2308 -6.4363 0.0 0
M  V30 END ATOM
M  V30 BEGIN BOND
M  V30 1 1 1 2
M  V30 2 2 2 3
M  V30 3 1 2 4
M  V30 4 1 3 5
M  V30 5 2 4 6
M  V30 6 1 5 7
M  V30 7 2 5 8
M  V30 8 1 7 9
M  V30 9 1 7 10
M  V30 10 1 8 11
M  V30 11 2 9 12
M  V30 12 1 9 13
M  V30 13 1 10 14
M  V30 14 1 11 15
M  V30 15 1 12 16
M  V30 16 2 13 17
M  V30 17 2 14 18
M  V30 18 1 14 19
M  V30 19 1 15 20
M  V30 20 2 16 21
M  V30 21 2 20 22
M  V30 22 1 20 23
M  V30 23 1 21 24
M  V30 24 1 22 25
M  V30 25 2 23 26
M  V30 26 1 24 27
M  V30 27 1 24 28
M  V30 28 1 24 29
M  V30 29 1 25 30
M  V30 30 2 25 31
M  V30 31 1 30 32
M  V30 32 1 6 8
M  V30 33 2 10 11
M  V30 34 1 17 21
M  V30 35 1 26 31
M  V30 END BOND
M  V30 END CTAB
M  END
>  <Molecule ChEMBL ID>
CHEMBL198493

>  <Smiles>
COc1cccc(Oc2c(C(=O)O)n(-c3ccc(C(C)(C)C)cc3)c3nc(Cl)ccc23)c1

>  <IC50_nM>
104

>  <Assay Description>
Inhibitory concentration against human peroxisome proliferator activated receptor gamma in SPA assay

$$$$
CHEMBL3678151
Actelion Java MolfileCreator 2.0

  0  0  0  0  0  0              0 V3000
M  V30 BEGIN CTAB
M  V30 COUNTS 36 39 0 0 0
M  V30 BEGIN ATOM
M  V30 1 Br 6.0621 -1.9999 0.0 0
M  V30 2 C 5.1961 -1.4999 0.0 0
M  V30 3 C 5.1961 -0.5 0.0 0
M  V30 4 C 4.3301 -1.9999 0.0 0
M  V30 5 C 4.3301 0.0 0.0 0
M  V30 6 C 3.4641 -1.5 0.0 0
M  V30 7 C 3.4641 -0.5 0.0 0
M  V30 8 C 2.598 0.0 0.0 0 CFG=1
M  V30 9 N 1.732 -0.5 0.0 0
M  V30 10 C 2.598 1.0 0.0 0
M  V30 11 C 0.866 0.0 0.0 0
M  V30 12 O 0.866 1.0 0.0 0
M  V30 13 C 0.0 -0.5 0.0 0
M  V30 14 C 0.0 -1.4999 0.0 0
M  V30 15 C -0.866 0.0 0.0 0
M  V30 16 C -0.866 -1.9999 0.0 0
M  V30 17 C -1.732 -0.4999 0.0 0
M  V30 18 C -1.732 -1.4999 0.0 0
M  V30 19 C -1.0739 -2.9781 0.0 0
M  V30 20 N -2.4751 -2.1691 0.0 0
M  V30 21 C -2.0684 -3.0826 0.0 0
M  V30 22 C -0.4048 -3.7212 0.0 0
M  V30 23 C -3.4533 -1.9612 0.0 0
M  V30 24 C -2.5684 -3.9487 0.0 0
M  V30 25 C -4.1224 -2.7043 0.0 0
M  V30 26 C -5.1006 -2.4964 0.0 0
M  V30 27 C -3.8134 -3.6554 0.0 0
M  V30 28 C -5.7697 -3.2395 0.0 0
M  V30 29 C -4.4825 -4.3985 0.0 0
M  V30 30 O -6.7478 -3.0316 0.0 0
M  V30 31 C -5.4607 -4.1906 0.0 0
M  V30 32 C -7.417 -3.7748 0.0 0 CFG=2
M  V30 33 C -8.3951 -3.5669 0.0 0
M  V30 34 C -7.108 -4.7258 0.0 0
M  V30 35 O -8.7041 -2.6158 0.0 0
M  V30 36 O -9.0643 -4.31 0.0 0
M  V30 END ATOM
M  V30 BEGIN BOND
M  V30 1 1 1 2
M  V30 2 2 2 3
M  V30 3 1 2 4
M  V30 4 1 3 5
M  V30 5 2 4 6
M  V30 6 2 5 7
M  V30 7 1 7 8
M  V30 8 1 8 9
M  V30 9 1 8 10 CFG=1
M  V30 10 1 9 11
M  V30 11 2 11 12
M  V30 12 1 11 13
M  V30 13 2 13 14
M  V30 14 1 13 15
M  V30 15 1 14 16
M  V30 16 2 15 17
M  V30 17 2 16 18
M  V30 18 1 16 19
M  V30 19 1 18 20
M  V30 20 2 19 21
M  V30 21 1 19 22
M  V30 22 1 20 23
M  V30 23 1 21 24
M  V30 24 1 23 25
M  V30 25 2 25 26
M  V30 26 1 25 27
M  V30 27 1 26 28
M  V30 28 2 27 29
M  V30 29 1 28 30
M  V30 30 2 28 31
M  V30 31 1 30 32
M  V30 32 1 32 33
M  V30 33 1 32 34 CFG=1
M  V30 34 2 33 35
M  V30 35 1 33 36
M  V30 36 1 6 7
M  V30 37 1 17 18
M  V30 38 1 20 21
M  V30 39 1 29 31
M  V30 END BOND
M  V30 BEGIN COLLECTION
M  V30 MDLV30/STEABS ATOMS=(2 8 32)
M  V30 END COLLECTION
M  V30 END CTAB
M  END
>  <Molecule ChEMBL ID>
CHEMBL3678151

>  <Smiles>
Cc1c(C)n(Cc2cccc(O[C@@H](C)C(=O)O)c2)c2ccc(C(=O)N[C@@H](C)c3ccc(Br)cc3)cc12

>  <IC50_nM>
104

>  <Assay Description>
Lanthascreen Competitive Binding Assay: The assay was performed according to manufacturer protocol. A mixture of 5 nM GST-PPARG-LBD, 5 nM Tb-GST-antibody, 5 nM Fluormone Pan- PPAR Green, and serial dilutions of the experimental compound, beginning at 10 ׬� downwards, was added to wells of black 384-well low- volume plates (Greiner) to a total volume of 18 xL. All dilutions were made in TR-FRET assay buffer C. DMSO at 2% final concentration was used as a no-ligand control. Experiment was performed in triplicate, and incubated for 2 hours in the dark prior to assay read in Perkin Elmer ViewLux ultra HTS microplate reader. FRET signal was measured by excitation at 340 nm and emission at 520 nm for fluorescein and 490 nm for terbium.

$$$$
CHEMBL177831
Actelion Java MolfileCreator 2.0

  0  0  0  0  0  0              0 V3000
M  V30 BEGIN CTAB
M  V30 COUNTS 35 38 0 0 0
M  V30 BEGIN ATOM
M  V30 1 F 9.7234 2.4393 0.0 0
M  V30 2 C 9.5155 1.4612 0.0 0
M  V30 3 F 10.4936 1.2533 0.0 0
M  V30 4 F 9.3076 0.483 0.0 0
M  V30 5 C 8.5373 1.6691 0.0 0
M  V30 6 N 8.1306 2.5826 0.0 0
M  V30 7 C 7.7942 0.9999 0.0 0
M  V30 8 O 7.1361 2.4781 0.0 0
M  V30 9 C 6.9282 1.4999 0.0 0
M  V30 10 C 7.7942 0.0 0.0 0
M  V30 11 C 6.0621 0.9999 0.0 0
M  V30 12 C 6.9282 -0.5 0.0 0
M  V30 13 C 6.0621 0.0 0.0 0
M  V30 14 C 5.1961 1.5 0.0 0
M  V30 15 O 5.1961 -0.5 0.0 0
M  V30 16 C 5.1961 2.5 0.0 0
M  V30 17 C 4.3301 0.0 0.0 0
M  V30 18 C 4.3301 3.0 0.0 0
M  V30 19 C 3.4641 -0.5 0.0 0
M  V30 20 C 2.598 0.0 0.0 0
M  V30 21 C 1.732 -0.5 0.0 0
M  V30 22 O 0.866 0.0 0.0 0
M  V30 23 C 0.0 -0.5 0.0 0
M  V30 24 C 0.0 -1.4999 0.0 0
M  V30 25 C -0.866 0.0 0.0 0
M  V30 26 C -0.866 -1.9999 0.0 0
M  V30 27 C -1.732 -0.4999 0.0 0
M  V30 28 C -1.732 -1.4999 0.0 0
M  V30 29 C -1.0739 -2.9781 0.0 0
M  V30 30 N -2.4751 -2.1691 0.0 0
M  V30 31 C -2.0684 -3.0826 0.0 0
M  V30 32 C -3.4533 -1.9612 0.0 0
M  V30 33 C -3.7623 -1.0101 0.0 0
M  V30 34 O -3.0932 -0.267 0.0 0
M  V30 35 O -4.7405 -0.8022 0.0 0
M  V30 END ATOM
M  V30 BEGIN BOND
M  V30 1 1 1 2
M  V30 2 1 2 3
M  V30 3 1 2 4
M  V30 4 1 2 5
M  V30 5 2 5 6
M  V30 6 1 5 7
M  V30 7 1 6 8
M  V30 8 2 7 9
M  V30 9 1 7 10
M  V30 10 1 9 11
M  V30 11 2 10 12
M  V30 12 2 11 13
M  V30 13 1 11 14
M  V30 14 1 13 15
M  V30 15 1 14 16
M  V30 16 1 15 17
M  V30 17 1 16 18
M  V30 18 1 17 19
M  V30 19 1 19 20
M  V30 20 1 20 21
M  V30 21 1 21 22
M  V30 22 1 22 23
M  V30 23 2 23 24
M  V30 24 1 23 25
M  V30 25 1 24 26
M  V30 26 2 25 27
M  V30 27 2 26 28
M  V30 28 1 26 29
M  V30 29 1 28 30
M  V30 30 2 29 31
M  V30 31 1 30 32
M  V30 32 1 32 33
M  V30 33 2 33 34
M  V30 34 1 33 35
M  V30 35 1 8 9
M  V30 36 1 12 13
M  V30 37 1 27 28
M  V30 38 1 30 31
M  V30 END BOND
M  V30 END CTAB
M  END
>  <Molecule ChEMBL ID>
CHEMBL177831

>  <Smiles>
CCCc1c(OCCCCOc2ccc3c(ccn3CC(=O)O)c2)ccc2c(C(F)(F)F)noc12

>  <IC50_nM>
105

>  <Assay Description>
Displacement of [3H]rosiglitazone from human PPAR gamma by SPA assay

$$$$
CHEMBL455130
Actelion Java MolfileCreator 2.0

  0  0  0  0  0  0              0 V3000
M  V30 BEGIN CTAB
M  V30 COUNTS 32 35 0 0 0
M  V30 BEGIN ATOM
M  V30 1 Cl 6.0664 -5.852 0.0 0
M  V30 2 C 6.6542 -5.043 0.0 0
M  V30 3 C 7.6487 -5.1475 0.0 0
M  V30 4 C 6.2475 -4.1294 0.0 0
M  V30 5 C 8.2365 -4.3385 0.0 0
M  V30 6 C 6.8353 -3.3204 0.0 0
M  V30 7 C 7.8298 -3.4249 0.0 0
M  V30 8 O 8.4176 -2.6159 0.0 0
M  V30 9 C 8.0108 -1.7024 0.0 0
M  V30 10 C 8.5108 -0.8364 0.0 0
M  V30 11 C 7.0327 -1.4945 0.0 0
M  V30 12 C 7.8417 -0.0932 0.0 0
M  V30 13 C 9.489 -0.6284 0.0 0
M  V30 14 N 6.9282 -0.5 0.0 0
M  V30 15 C 6.2895 -2.1636 0.0 0
M  V30 16 N 8.1507 0.8577 0.0 0
M  V30 17 C 9.798 0.3225 0.0 0
M  V30 18 C 6.0621 0.0 0.0 0
M  V30 19 C 9.1289 1.0657 0.0 0
M  V30 20 C 5.1961 -0.5 0.0 0
M  V30 21 C 4.3301 0.0 0.0 0
M  V30 22 C 5.1961 -1.4999 0.0 0
M  V30 23 C 3.4641 -0.5 0.0 0
M  V30 24 C 4.3301 -1.9999 0.0 0
M  V30 25 O 2.598 0.0 0.0 0
M  V30 26 C 3.4641 -1.4999 0.0 0
M  V30 27 C 1.732 -0.5 0.0 0 CFG=2
M  V30 28 F 2.598 -1.9999 0.0 0
M  V30 29 C 0.866 0.0 0.0 0
M  V30 30 C 1.732 -1.5 0.0 0
M  V30 31 O 0.866 1.0 0.0 0
M  V30 32 O 0.0 -0.5 0.0 0
M  V30 END ATOM
M  V30 BEGIN BOND
M  V30 1 1 1 2
M  V30 2 2 2 3
M  V30 3 1 2 4
M  V30 4 1 3 5
M  V30 5 2 4 6
M  V30 6 2 5 7
M  V30 7 1 7 8
M  V30 8 1 8 9
M  V30 9 1 9 10
M  V30 10 2 9 11
M  V30 11 2 10 12
M  V30 12 1 10 13
M  V30 13 1 11 14
M  V30 14 1 11 15
M  V30 15 1 12 16
M  V30 16 2 13 17
M  V30 17 1 14 18
M  V30 18 2 16 19
M  V30 19 1 18 20
M  V30 20 2 20 21
M  V30 21 1 20 22
M  V30 22 1 21 23
M  V30 23 2 22 24
M  V30 24 1 23 25
M  V30 25 2 23 26
M  V30 26 1 25 27
M  V30 27 1 26 28
M  V30 28 1 27 29
M  V30 29 1 27 30 CFG=1
M  V30 30 2 29 31
M  V30 31 1 29 32
M  V30 32 1 6 7
M  V30 33 1 12 14
M  V30 34 1 17 19
M  V30 35 1 24 26
M  V30 END BOND
M  V30 BEGIN COLLECTION
M  V30 MDLV30/STEABS ATOMS=(1 27)
M  V30 END COLLECTION
M  V30 END CTAB
M  END
>  <Molecule ChEMBL ID>
CHEMBL455130

>  <Smiles>
Cc1c(Oc2ccc(Cl)cc2)c2cccnc2n1Cc1ccc(F)c(O[C@@H](C)C(=O)O)c1

>  <IC50_nM>
106

>  <Assay Description>
Displacement of [3H]2AD-5075 from GST-tagged human PPARgamma receptor expressed in Escherichia coli BL21

$$$$
CHEMBL194740
Actelion Java MolfileCreator 2.0

  0  0  0  0  0  0              0 V3000
M  V30 BEGIN CTAB
M  V30 COUNTS 33 36 0 0 0
M  V30 BEGIN ATOM
M  V30 1 F 3.8301 0.866 0.0 0
M  V30 2 C 4.3301 0.0 0.0 0
M  V30 3 F 5.1961 0.4999 0.0 0
M  V30 4 F 4.8301 -0.866 0.0 0
M  V30 5 C 3.4641 -0.5 0.0 0
M  V30 6 C 2.598 0.0 0.0 0
M  V30 7 C 3.4641 -1.4999 0.0 0
M  V30 8 C 1.732 -0.5 0.0 0
M  V30 9 C 2.598 -2.0 0.0 0
M  V30 10 O 0.866 0.0 0.0 0
M  V30 11 C 1.732 -1.5 0.0 0
M  V30 12 C 0.0 -0.5 0.0 0
M  V30 13 C -0.9135 -0.0932 0.0 0
M  V30 14 C -0.1045 -1.4945 0.0 0
M  V30 15 N -1.5826 -0.8364 0.0 0
M  V30 16 C -1.1214 0.8848 0.0 0
M  V30 17 C -1.0826 -1.7024 0.0 0
M  V30 18 C 0.5646 -2.2376 0.0 0
M  V30 19 C -2.5771 -0.7318 0.0 0
M  V30 20 O -0.3783 1.554 0.0 0
M  V30 21 O -2.0725 1.1939 0.0 0
M  V30 22 C -1.3916 -2.6534 0.0 0
M  V30 23 C 0.2555 -3.1887 0.0 0
M  V30 24 C -2.9839 0.1816 0.0 0
M  V30 25 C -3.1649 -1.5408 0.0 0
M  V30 26 C -0.7225 -3.3966 0.0 0
M  V30 27 C -3.9784 0.2861 0.0 0
M  V30 28 C -4.1595 -1.4363 0.0 0
M  V30 29 C -4.5662 -0.5228 0.0 0
M  V30 30 C -5.5607 -0.4182 0.0 0
M  V30 31 F -5.6652 -1.4128 0.0 0
M  V30 32 F -6.5552 -0.3137 0.0 0
M  V30 33 F -5.4562 0.5762 0.0 0
M  V30 END ATOM
M  V30 BEGIN BOND
M  V30 1 1 1 2
M  V30 2 1 2 3
M  V30 3 1 2 4
M  V30 4 1 2 5
M  V30 5 2 5 6
M  V30 6 1 5 7
M  V30 7 1 6 8
M  V30 8 2 7 9
M  V30 9 1 8 10
M  V30 10 2 8 11
M  V30 11 1 10 12
M  V30 12 2 12 13
M  V30 13 1 12 14
M  V30 14 1 13 15
M  V30 15 1 13 16
M  V30 16 2 14 17
M  V30 17 1 14 18
M  V30 18 1 15 19
M  V30 19 2 16 20
M  V30 20 1 16 21
M  V30 21 1 17 22
M  V30 22 2 18 23
M  V30 23 2 19 24
M  V30 24 1 19 25
M  V30 25 2 22 26
M  V30 26 1 24 27
M  V30 27 2 25 28
M  V30 28 2 27 29
M  V30 29 1 29 30
M  V30 30 1 30 31
M  V30 31 1 30 32
M  V30 32 1 30 33
M  V30 33 1 9 11
M  V30 34 1 15 17
M  V30 35 1 23 26
M  V30 36 1 28 29
M  V30 END BOND
M  V30 END CTAB
M  END
>  <Molecule ChEMBL ID>
CHEMBL194740

>  <Smiles>
O=C(O)c1c(Oc2cccc(C(F)(F)F)c2)c2ccccc2n1-c1ccc(C(F)(F)F)cc1

>  <IC50_nM>
107

>  <Assay Description>
Inhibitory concentration against human peroxisome proliferator activated receptor gamma in SPA assay

$$$$
CHEMBL3678119
Actelion Java MolfileCreator 2.0

  0  0  0  0  0  0              0 V3000
M  V30 BEGIN CTAB
M  V30 COUNTS 39 42 0 0 0
M  V30 BEGIN ATOM
M  V30 1 O 16.6278 2.2222 0.0 0
M  V30 2 C 16.1643 0.7957 0.0 0
M  V30 3 N 17.168 -0.319 0.0 0
M  V30 4 C 14.697 0.4838 0.0 0
M  V30 5 C 16.7044 -1.7455 0.0 0 CFG=2
M  V30 6 C 14.2335 -0.9427 0.0 0
M  V30 7 C 13.6933 1.5985 0.0 0
M  V30 8 C 17.7081 -2.8603 0.0 0
M  V30 9 C 15.2372 -2.0574 0.0 0
M  V30 10 C 12.7663 -1.2546 0.0 0
M  V30 11 C 12.2261 1.2866 0.0 0
M  V30 12 C 19.1753 -2.5484 0.0 0
M  V30 13 C 17.2446 -4.2869 0.0 0
M  V30 14 C 11.7626 -0.1398 0.0 0
M  V30 15 C 12.0163 -2.5536 0.0 0
M  V30 16 C 20.179 -3.6631 0.0 0
M  V30 17 C 18.2483 -5.4016 0.0 0
M  V30 18 N 10.3923 -0.75 0.0 0
M  V30 19 C 10.5491 -2.2417 0.0 0
M  V30 20 C 12.6264 -3.9239 0.0 0
M  V30 21 C 19.7155 -5.0897 0.0 0
M  V30 22 C 21.6463 -3.3512 0.0 0
M  V30 23 C 9.0932 0.0 0.0 0
M  V30 24 C 9.4343 -3.2454 0.0 0
M  V30 25 C 22.1098 -1.9247 0.0 0
M  V30 26 C 22.65 -4.466 0.0 0
M  V30 27 C 7.7942 -0.75 0.0 0
M  V30 28 C 6.4951 0.0 0.0 0
M  V30 29 C 7.7942 -2.25 0.0 0
M  V30 30 C 5.1961 -0.75 0.0 0
M  V30 31 C 6.4951 -3.0 0.0 0
M  V30 32 O 3.8971 0.0 0.0 0
M  V30 33 C 5.1961 -2.25 0.0 0
M  V30 34 C 2.598 -0.75 0.0 0
M  V30 35 C 1.299 0.0 0.0 0
M  V30 36 C 1.848 -2.049 0.0 0
M  V30 37 C 3.348 -2.049 0.0 0
M  V30 38 O 1.299 1.5 0.0 0
M  V30 39 O 0.0 -0.75 0.0 0
M  V30 END ATOM
M  V30 BEGIN BOND
M  V30 1 2 1 2
M  V30 2 1 2 3
M  V30 3 1 2 4
M  V30 4 1 3 5
M  V30 5 2 4 6
M  V30 6 1 4 7
M  V30 7 1 5 8
M  V30 8 1 5 9 CFG=3
M  V30 9 1 6 10
M  V30 10 2 7 11
M  V30 11 2 8 12
M  V30 12 1 8 13
M  V30 13 2 10 14
M  V30 14 1 10 15
M  V30 15 1 12 16
M  V30 16 2 13 17
M  V30 17 1 14 18
M  V30 18 2 15 19
M  V30 19 1 15 20
M  V30 20 2 16 21
M  V30 21 1 16 22
M  V30 22 1 18 23
M  V30 23 1 19 24
M  V30 24 1 22 25
M  V30 25 1 22 26
M  V30 26 1 23 27
M  V30 27 2 27 28
M  V30 28 1 27 29
M  V30 29 1 28 30
M  V30 30 2 29 31
M  V30 31 1 30 32
M  V30 32 2 30 33
M  V30 33 1 32 34
M  V30 34 1 34 35
M  V30 35 1 34 36
M  V30 36 1 34 37
M  V30 37 2 35 38
M  V30 38 1 35 39
M  V30 39 1 11 14
M  V30 40 1 17 21
M  V30 41 1 18 19
M  V30 42 1 31 33
M  V30 END BOND
M  V30 BEGIN COLLECTION
M  V30 MDLV30/STEABS ATOMS=(1 5)
M  V30 END COLLECTION
M  V30 END CTAB
M  END
>  <Molecule ChEMBL ID>
CHEMBL3678119

>  <Smiles>
Cc1c(C)n(Cc2cccc(OC(C)(C)C(=O)O)c2)c2ccc(C(=O)N[C@@H](C)c3cccc(C(C)C)c3)cc12

>  <IC50_nM>
107

>  <Assay Description>
Lanthascreen Competitive Binding Assay: The assay was performed according to manufacturer protocol. A mixture of 5 nM GST-PPARG-LBD, 5 nM Tb-GST-antibody, 5 nM Fluormone Pan- PPAR Green, and serial dilutions of the experimental compound, beginning at 10 ׬� downwards, was added to wells of black 384-well low- volume plates (Greiner) to a total volume of 18 xL. All dilutions were made in TR-FRET assay buffer C. DMSO at 2% final concentration was used as a no-ligand control. Experiment was performed in triplicate, and incubated for 2 hours in the dark prior to assay read in Perkin Elmer ViewLux ultra HTS microplate reader. FRET signal was measured by excitation at 340 nm and emission at 520 nm for fluorescein and 490 nm for terbium.

$$$$
CHEMBL3678123
Actelion Java MolfileCreator 2.0

  0  0  0  0  0  0              0 V3000
M  V30 BEGIN CTAB
M  V30 COUNTS 38 41 0 0 0
M  V30 BEGIN ATOM
M  V30 1 O 9.8567 -5.6093 0.0 0
M  V30 2 C 8.8785 -5.8172 0.0 0
M  V30 3 N 8.5695 -6.7682 0.0 0
M  V30 4 C 8.2094 -5.074 0.0 0
M  V30 5 C 7.5914 -6.9761 0.0 0 CFG=2
M  V30 6 C 7.2313 -5.2819 0.0 0
M  V30 7 C 8.5184 -4.123 0.0 0
M  V30 8 C 7.2824 -7.9272 0.0 0
M  V30 9 C 6.9222 -6.233 0.0 0
M  V30 10 C 6.5621 -4.5388 0.0 0
M  V30 11 C 7.8493 -3.3798 0.0 0
M  V30 12 C 7.9515 -8.6703 0.0 0
M  V30 13 C 6.3042 -8.1351 0.0 0
M  V30 14 C 6.8711 -3.5877 0.0 0
M  V30 15 C 5.5621 -4.5388 0.0 0
M  V30 16 C 7.6425 -9.6214 0.0 0
M  V30 17 C 5.9952 -9.0862 0.0 0
M  V30 18 N 6.0621 -3.0 0.0 0
M  V30 19 C 5.2531 -3.5877 0.0 0
M  V30 20 C 4.9743 -5.3478 0.0 0
M  V30 21 C 6.6643 -9.8293 0.0 0
M  V30 22 C 8.3116 -10.3645 0.0 0
M  V30 23 C 6.0621 -1.9999 0.0 0
M  V30 24 C 4.3021 -3.2787 0.0 0
M  V30 25 C 9.2897 -10.1566 0.0 0
M  V30 26 C 8.0026 -11.3156 0.0 0
M  V30 27 C 5.1961 -1.4999 0.0 0
M  V30 28 C 5.1961 -0.5 0.0 0
M  V30 29 C 4.3301 -1.9999 0.0 0
M  V30 30 C 4.3301 0.0 0.0 0
M  V30 31 C 3.4641 -1.5 0.0 0
M  V30 32 C 3.4641 -0.5 0.0 0
M  V30 33 O 2.598 0.0 0.0 0
M  V30 34 C 1.732 -0.5 0.0 0 CFG=1
M  V30 35 C 0.866 0.0 0.0 0
M  V30 36 C 1.732 -1.5 0.0 0
M  V30 37 O 0.866 1.0 0.0 0
M  V30 38 O 0.0 -0.5 0.0 0
M  V30 END ATOM
M  V30 BEGIN BOND
M  V30 1 2 1 2
M  V30 2 1 2 3
M  V30 3 1 2 4
M  V30 4 1 3 5
M  V30 5 2 4 6
M  V30 6 1 4 7
M  V30 7 1 5 8
M  V30 8 1 5 9 CFG=3
M  V30 9 1 6 10
M  V30 10 2 7 11
M  V30 11 2 8 12
M  V30 12 1 8 13
M  V30 13 2 10 14
M  V30 14 1 10 15
M  V30 15 1 12 16
M  V30 16 2 13 17
M  V30 17 1 14 18
M  V30 18 2 15 19
M  V30 19 1 15 20
M  V30 20 2 16 21
M  V30 21 1 16 22
M  V30 22 1 18 23
M  V30 23 1 19 24
M  V30 24 1 22 25
M  V30 25 1 22 26
M  V30 26 1 23 27
M  V30 27 2 27 28
M  V30 28 1 27 29
M  V30 29 1 28 30
M  V30 30 2 29 31
M  V30 31 2 30 32
M  V30 32 1 32 33
M  V30 33 1 33 34
M  V30 34 1 34 35
M  V30 35 1 34 36 CFG=3
M  V30 36 2 35 37
M  V30 37 1 35 38
M  V30 38 1 11 14
M  V30 39 1 17 21
M  V30 40 1 18 19
M  V30 41 1 31 32
M  V30 END BOND
M  V30 BEGIN COLLECTION
M  V30 MDLV30/STEABS ATOMS=(2 5 34)
M  V30 END COLLECTION
M  V30 END CTAB
M  END
>  <Molecule ChEMBL ID>
CHEMBL3678123

>  <Smiles>
Cc1c(C)n(Cc2ccc(O[C@H](C)C(=O)O)cc2)c2ccc(C(=O)N[C@@H](C)c3cccc(C(C)C)c3)cc12

>  <IC50_nM>
107

>  <Assay Description>
Lanthascreen Competitive Binding Assay: The assay was performed according to manufacturer protocol. A mixture of 5 nM GST-PPARG-LBD, 5 nM Tb-GST-antibody, 5 nM Fluormone Pan- PPAR Green, and serial dilutions of the experimental compound, beginning at 10 ׬� downwards, was added to wells of black 384-well low- volume plates (Greiner) to a total volume of 18 xL. All dilutions were made in TR-FRET assay buffer C. DMSO at 2% final concentration was used as a no-ligand control. Experiment was performed in triplicate, and incubated for 2 hours in the dark prior to assay read in Perkin Elmer ViewLux ultra HTS microplate reader. FRET signal was measured by excitation at 340 nm and emission at 520 nm for fluorescein and 490 nm for terbium.

$$$$
CHEMBL3639769
Actelion Java MolfileCreator 2.0

  0  0  0  0  0  0              0 V3000
M  V30 BEGIN CTAB
M  V30 COUNTS 37 40 0 0 0
M  V30 BEGIN ATOM
M  V30 1 O 1.732 -0.5 0.0 0
M  V30 2 C 2.598 0.0 0.0 0
M  V30 3 N 3.4641 -0.4999 0.0 0
M  V30 4 C 2.598 1.0 0.0 0
M  V30 5 C 4.3301 0.0 0.0 0 CFG=2
M  V30 6 C 1.732 1.4999 0.0 0
M  V30 7 C 3.4641 1.5 0.0 0
M  V30 8 C 5.1961 -0.4999 0.0 0
M  V30 9 C 4.3301 1.0 0.0 0
M  V30 10 C 1.732 2.4999 0.0 0
M  V30 11 C 3.4641 2.5 0.0 0
M  V30 12 C 5.1961 -1.4999 0.0 0
M  V30 13 C 6.0621 0.0 0.0 0
M  V30 14 C 2.598 3.0 0.0 0
M  V30 15 C 0.9889 3.1691 0.0 0
M  V30 16 C 6.0621 -1.9999 0.0 0
M  V30 17 C 6.9282 -0.4999 0.0 0
M  V30 18 N 2.3901 3.9781 0.0 0
M  V30 19 C 1.3956 4.0826 0.0 0
M  V30 20 C 0.0107 2.9612 0.0 0
M  V30 21 C 6.9282 -1.4999 0.0 0
M  V30 22 C 3.0592 4.7212 0.0 0
M  V30 23 C 0.8956 4.9487 0.0 0
M  V30 24 C 7.7942 -1.9999 0.0 0
M  V30 25 C 2.7502 5.6723 0.0 0
M  V30 26 C 8.2942 -1.1339 0.0 0
M  V30 27 C 8.6602 -2.4999 0.0 0
M  V30 28 C 7.2942 -2.866 0.0 0
M  V30 29 C 3.4194 6.4154 0.0 0
M  V30 30 C 1.7721 5.8802 0.0 0
M  V30 31 C 3.1103 7.3665 0.0 0
M  V30 32 C 1.4631 6.8313 0.0 0
M  V30 33 O 3.7795 8.1096 0.0 0
M  V30 34 C 2.1322 7.5744 0.0 0
M  V30 35 C 3.4705 9.0607 0.0 0
M  V30 36 C 2.4923 9.2686 0.0 0
M  V30 37 N 1.5142 9.4765 0.0 0
M  V30 END ATOM
M  V30 BEGIN BOND
M  V30 1 2 1 2
M  V30 2 1 2 3
M  V30 3 1 2 4
M  V30 4 1 3 5
M  V30 5 2 4 6
M  V30 6 1 4 7
M  V30 7 1 5 8
M  V30 8 1 5 9 CFG=1
M  V30 9 1 6 10
M  V30 10 2 7 11
M  V30 11 2 8 12
M  V30 12 1 8 13
M  V30 13 2 10 14
M  V30 14 1 10 15
M  V30 15 1 12 16
M  V30 16 2 13 17
M  V30 17 1 14 18
M  V30 18 2 15 19
M  V30 19 1 15 20
M  V30 20 2 16 21
M  V30 21 1 18 22
M  V30 22 1 19 23
M  V30 23 1 21 24
M  V30 24 1 22 25
M  V30 25 1 24 26
M  V30 26 1 24 27
M  V30 27 1 24 28
M  V30 28 2 25 29
M  V30 29 1 25 30
M  V30 30 1 29 31
M  V30 31 2 30 32
M  V30 32 1 31 33
M  V30 33 2 31 34
M  V30 34 1 33 35
M  V30 35 1 35 36
M  V30 36 3 36 37
M  V30 37 1 11 14
M  V30 38 1 17 21
M  V30 39 1 18 19
M  V30 40 1 32 34
M  V30 END BOND
M  V30 BEGIN COLLECTION
M  V30 MDLV30/STEABS ATOMS=(1 5)
M  V30 END COLLECTION
M  V30 END CTAB
M  END
>  <Molecule ChEMBL ID>
CHEMBL3639769

>  <Smiles>
Cc1c(C)n(Cc2cccc(OCC#N)c2)c2ccc(C(=O)N[C@@H](C)c3ccc(C(C)(C)C)cc3)cc12

>  <IC50_nM>
107

>  <Assay Description>
Lanthascreen Competitive Binding Assay: The assay was performed according to manufacturer protocol. A mixture of 5 nM GST-PPARG-LBD, 5 nM Tb-GST-antibody, 5 nM Fluormone Pan- PPAR Green, and serial dilutions of the experimental compound, beginning at 10 ׬� downwards, was added to wells of black 384-well low- volume plates (Greiner) to a total volume of 18 xL. All dilutions were made in TR-FRET assay buffer C. DMSO at 2% final concentration was used as a no-ligand control. Experiment was performed in triplicate, and incubated for 2 hours in the dark prior to assay read in Perkin Elmer ViewLux ultra HTS microplate reader. FRET signal was measured by excitation at 340 nm and emission at 520 nm for fluorescein and 490 nm for terbium.

$$$$
CHEMBL5284640
Actelion Java MolfileCreator 2.0

  0  0  0  0  0  0              0 V3000
M  V30 BEGIN CTAB
M  V30 COUNTS 38 42 0 0 0
M  V30 BEGIN ATOM
M  V30 1 O 5.1961 -0.75 0.0 0
M  V30 2 C 3.8971 0.0 0.0 0
M  V30 3 N 2.598 -0.75 0.0 0
M  V30 4 C 3.8971 1.5 0.0 0
M  V30 5 C 1.299 0.0 0.0 0 CFG=2
M  V30 6 C 2.598 2.25 0.0 0
M  V30 7 C 5.1961 2.25 0.0 0
M  V30 8 C 0.0 -0.75 0.0 0
M  V30 9 C 1.299 1.5 0.0 0
M  V30 10 C 2.598 3.75 0.0 0
M  V30 11 C 5.1961 3.75 0.0 0
M  V30 12 C 0.0 -2.25 0.0 0
M  V30 13 C -1.299 0.0 0.0 0
M  V30 14 C 3.8971 4.5 0.0 0
M  V30 15 C 1.4833 4.7537 0.0 0
M  V30 16 C -1.299 -3.0 0.0 0
M  V30 17 C -2.598 -0.75 0.0 0
M  V30 18 N 3.5852 5.9672 0.0 0
M  V30 19 C 2.0934 6.124 0.0 0
M  V30 20 C 0.0161 4.4418 0.0 0
M  V30 21 C -2.598 -2.25 0.0 0
M  V30 22 C -1.299 -4.5 0.0 0
M  V30 23 C 4.5889 7.0819 0.0 0
M  V30 24 C 1.3434 7.423 0.0 0
M  V30 25 C -0.549 -5.799 0.0 0
M  V30 26 C -2.049 -5.799 0.0 0
M  V30 27 C 4.1254 8.5085 0.0 0
M  V30 28 C 5.1291 9.6232 0.0 0
M  V30 29 C 2.6581 8.8204 0.0 0
M  V30 30 C 4.6655 11.0498 0.0 0
M  V30 31 C 2.1946 10.2469 0.0 0
M  V30 32 C 3.1983 11.3617 0.0 0
M  V30 33 C 2.7348 12.7882 0.0 0
M  V30 34 C 3.7385 13.903 0.0 0
M  V30 35 C 1.6201 13.7919 0.0 0
M  V30 36 C 1.3082 12.3247 0.0 0
M  V30 37 O 5.2057 13.5911 0.0 0
M  V30 38 O 3.275 15.3295 0.0 0
M  V30 END ATOM
M  V30 BEGIN BOND
M  V30 1 2 1 2
M  V30 2 1 2 3
M  V30 3 1 2 4
M  V30 4 1 3 5
M  V30 5 2 4 6
M  V30 6 1 4 7
M  V30 7 1 5 8
M  V30 8 1 5 9 CFG=3
M  V30 9 1 6 10
M  V30 10 2 7 11
M  V30 11 2 8 12
M  V30 12 1 8 13
M  V30 13 2 10 14
M  V30 14 1 10 15
M  V30 15 1 12 16
M  V30 16 2 13 17
M  V30 17 1 14 18
M  V30 18 2 15 19
M  V30 19 1 15 20
M  V30 20 2 16 21
M  V30 21 1 16 22
M  V30 22 1 18 23
M  V30 23 1 19 24
M  V30 24 1 22 25
M  V30 25 1 22 26
M  V30 26 1 23 27
M  V30 27 2 27 28
M  V30 28 1 27 29
M  V30 29 1 28 30
M  V30 30 2 29 31
M  V30 31 2 30 32
M  V30 32 1 32 33
M  V30 33 1 33 34
M  V30 34 1 33 35
M  V30 35 1 33 36
M  V30 36 2 34 37
M  V30 37 1 34 38
M  V30 38 1 11 14
M  V30 39 1 17 21
M  V30 40 1 18 19
M  V30 41 1 25 26
M  V30 42 1 31 32
M  V30 END BOND
M  V30 BEGIN COLLECTION
M  V30 MDLV30/STEABS ATOMS=(1 5)
M  V30 END COLLECTION
M  V30 END CTAB
M  END
>  <Molecule ChEMBL ID>
CHEMBL5284640

>  <Smiles>
Cc1c(C)n(Cc2ccc(C(C)(C)C(=O)O)cc2)c2ccc(C(=O)N[C@@H](C)c3cccc(C4CC4)c3)cc12

>  <IC50_nM>
108

>  <Assay Description>
Displacement of Fluormone Pan-PPAR Green from human recombinant GST-tagged PPARgamma LBD (201 to 475 residues) expressed in insect cells incubated for 2 hrs in dark by LantahScreen TR-FRET assay

$$$$
CHEMBL192919
Actelion Java MolfileCreator 2.0

  0  0  0  0  0  0              0 V3000
M  V30 BEGIN CTAB
M  V30 COUNTS 39 43 0 0 0
M  V30 BEGIN ATOM
M  V30 1 Cl 4.3301 -2.9999 0.0 0
M  V30 2 C 4.3301 -1.9999 0.0 0
M  V30 3 C 5.1961 -1.5 0.0 0
M  V30 4 C 3.4641 -1.5 0.0 0
M  V30 5 C 5.1961 -0.5 0.0 0
M  V30 6 C 3.4641 -0.5 0.0 0
M  V30 7 O 6.0621 0.0 0.0 0
M  V30 8 C 4.3301 0.0 0.0 0
M  V30 9 O 2.598 0.0 0.0 0
M  V30 10 C 6.0621 0.9999 0.0 0
M  V30 11 C 1.732 -0.5 0.0 0 CFG=2
M  V30 12 C 6.8711 1.5877 0.0 0
M  V30 13 C 5.2531 1.5877 0.0 0
M  V30 14 C 0.866 0.0 0.0 0
M  V30 15 C 1.732 -1.5 0.0 0
M  V30 16 C 6.5621 2.5388 0.0 0
M  V30 17 C 7.8493 1.3798 0.0 0
M  V30 18 N 5.5621 2.5388 0.0 0
M  V30 19 C 4.3021 1.2787 0.0 0
M  V30 20 O 0.866 1.0 0.0 0
M  V30 21 O 0.0 -0.5 0.0 0
M  V30 22 C 7.2313 3.2819 0.0 0
M  V30 23 C 8.5184 2.123 0.0 0
M  V30 24 C 4.9743 3.3478 0.0 0
M  V30 25 C 8.2094 3.074 0.0 0
M  V30 26 O 9.4966 1.9151 0.0 0
M  V30 27 N 5.2834 4.2989 0.0 0
M  V30 28 C 3.9743 3.3478 0.0 0
M  V30 29 C 10.1657 2.6582 0.0 0
M  V30 30 O 4.4743 4.8867 0.0 0
M  V30 31 C 3.6653 4.2989 0.0 0
M  V30 32 C 3.3052 2.6047 0.0 0
M  V30 33 F 9.4226 3.3273 0.0 0
M  V30 34 F 10.8348 3.4013 0.0 0
M  V30 35 F 10.9088 1.9891 0.0 0
M  V30 36 C 2.6872 4.5068 0.0 0
M  V30 37 C 2.3271 2.8126 0.0 0
M  V30 38 C 2.018 3.7636 0.0 0
M  V30 39 Cl 1.0399 3.9715 0.0 0
M  V30 END ATOM
M  V30 BEGIN BOND
M  V30 1 1 1 2
M  V30 2 2 2 3
M  V30 3 1 2 4
M  V30 4 1 3 5
M  V30 5 2 4 6
M  V30 6 1 5 7
M  V30 7 2 5 8
M  V30 8 1 6 9
M  V30 9 1 7 10
M  V30 10 1 9 11
M  V30 11 1 10 12
M  V30 12 2 10 13
M  V30 13 1 11 14
M  V30 14 1 11 15 CFG=1
M  V30 15 2 12 16
M  V30 16 1 12 17
M  V30 17 1 13 18
M  V30 18 1 13 19
M  V30 19 2 14 20
M  V30 20 1 14 21
M  V30 21 1 16 22
M  V30 22 2 17 23
M  V30 23 1 18 24
M  V30 24 2 22 25
M  V30 25 1 23 26
M  V30 26 2 24 27
M  V30 27 1 24 28
M  V30 28 1 26 29
M  V30 29 1 27 30
M  V30 30 2 28 31
M  V30 31 1 28 32
M  V30 32 1 29 33
M  V30 33 1 29 34
M  V30 34 1 29 35
M  V30 35 1 31 36
M  V30 36 2 32 37
M  V30 37 2 36 38
M  V30 38 1 38 39
M  V30 39 1 6 8
M  V30 40 1 16 18
M  V30 41 1 23 25
M  V30 42 1 30 31
M  V30 43 1 37 38
M  V30 END BOND
M  V30 BEGIN COLLECTION
M  V30 MDLV30/STEABS ATOMS=(1 11)
M  V30 END COLLECTION
M  V30 END CTAB
M  END
>  <Molecule ChEMBL ID>
CHEMBL192919

>  <Smiles>
Cc1c(Oc2cc(Cl)cc(O[C@@H](C)C(=O)O)c2)c2cc(OC(F)(F)F)ccc2n1-c1noc2cc(Cl)ccc12

>  <IC50_nM>
109

>  <Assay Description>
Inhibition of human peroxisome proliferator activated receptor gamma binding

$$$$
CHEMBL279053
Actelion Java MolfileCreator 2.0

  0  0  0  0  0  0              0 V3000
M  V30 BEGIN CTAB
M  V30 COUNTS 30 32 0 0 0
M  V30 BEGIN ATOM
M  V30 1 Cl 9.0932 1.5 0.0 0
M  V30 2 C 9.0932 0.0 0.0 0
M  V30 3 C 7.7942 -0.75 0.0 0
M  V30 4 C 10.3923 -0.7499 0.0 0
M  V30 5 S 6.4951 0.0 0.0 0
M  V30 6 C 7.7942 -2.25 0.0 0
M  V30 7 C 10.3923 -2.2499 0.0 0
M  V30 8 C 5.1961 -0.75 0.0 0
M  V30 9 C 9.0932 -2.9999 0.0 0
M  V30 10 C 11.6913 -2.9999 0.0 0
M  V30 11 C 3.8971 0.0 0.0 0
M  V30 12 C 11.6913 -4.4999 0.0 0
M  V30 13 C 2.598 -0.75 0.0 0
M  V30 14 O 10.3923 -5.2499 0.0 0
M  V30 15 O 12.9903 -5.2499 0.0 0
M  V30 16 O 1.299 0.0 0.0 0
M  V30 17 C 0.0 -0.75 0.0 0
M  V30 18 C -1.299 0.0 0.0 0
M  V30 19 C 0.0 -2.25 0.0 0
M  V30 20 C -2.598 -0.7499 0.0 0
M  V30 21 C -1.299 1.5 0.0 0
M  V30 22 C -1.299 -2.9999 0.0 0
M  V30 23 O -4.0246 -0.2864 0.0 0
M  V30 24 C -2.598 -2.2499 0.0 0
M  V30 25 C 0.0 2.25 0.0 0
M  V30 26 N -4.9063 -1.4999 0.0 0
M  V30 27 C -4.0246 -2.7135 0.0 0
M  V30 28 C 0.0 3.75 0.0 0
M  V30 29 C -4.4881 -4.1401 0.0 0
M  V30 30 C -3.4844 -5.2548 0.0 0
M  V30 END ATOM
M  V30 BEGIN BOND
M  V30 1 1 1 2
M  V30 2 2 2 3
M  V30 3 1 2 4
M  V30 4 1 3 5
M  V30 5 1 3 6
M  V30 6 2 4 7
M  V30 7 1 5 8
M  V30 8 2 6 9
M  V30 9 1 7 10
M  V30 10 1 8 11
M  V30 11 1 10 12
M  V30 12 1 11 13
M  V30 13 2 12 14
M  V30 14 1 12 15
M  V30 15 1 13 16
M  V30 16 1 16 17
M  V30 17 2 17 18
M  V30 18 1 17 19
M  V30 19 1 18 20
M  V30 20 1 18 21
M  V30 21 2 19 22
M  V30 22 1 20 23
M  V30 23 2 20 24
M  V30 24 1 21 25
M  V30 25 1 23 26
M  V30 26 1 24 27
M  V30 27 1 25 28
M  V30 28 1 27 29
M  V30 29 1 29 30
M  V30 30 1 7 9
M  V30 31 1 22 24
M  V30 32 2 26 27
M  V30 END BOND
M  V30 END CTAB
M  END
>  <Molecule ChEMBL ID>
CHEMBL279053

>  <Smiles>
CCCc1c(OCCCSc2ccc(CC(=O)O)cc2Cl)ccc2c(CC)noc12

>  <IC50_nM>
109.9

>  <Assay Description>
Agonist activity at PPARgamma

$$$$
CHEMBL256468
Actelion Java MolfileCreator 2.0

  0  0  0  0  0  0              0 V3000
M  V30 BEGIN CTAB
M  V30 COUNTS 40 44 0 0 0
M  V30 BEGIN ATOM
M  V30 1 O 4.355 -3.7071 0.0 0
M  V30 2 C 5.355 -3.7071 0.0 0
M  V30 3 N 6.0621 -4.4142 0.0 0
M  V30 4 C 6.0621 -3.0 0.0 0 CFG=2
M  V30 5 C 6.0621 -5.4142 0.0 0
M  V30 6 C 6.7692 -3.7071 0.0 0 CFG=1
M  V30 7 C 6.0621 -1.9999 0.0 0
M  V30 8 C 5.1961 -5.9142 0.0 0
M  V30 9 C 6.9282 -5.9142 0.0 0
M  V30 10 C 7.7692 -3.7071 0.0 0
M  V30 11 C 5.1961 -1.4999 0.0 0
M  V30 12 C 5.1961 -6.9142 0.0 0
M  V30 13 C 6.9282 -6.9142 0.0 0
M  V30 14 O 8.2692 -4.5731 0.0 0
M  V30 15 O 8.2692 -2.841 0.0 0
M  V30 16 C 5.1961 -0.5 0.0 0
M  V30 17 C 4.3301 -1.9999 0.0 0
M  V30 18 C 6.0621 -7.4142 0.0 0
M  V30 19 C 4.3301 0.0 0.0 0
M  V30 20 C 3.4641 -1.5 0.0 0
M  V30 21 C 6.0621 -8.4142 0.0 0
M  V30 22 C 3.4641 -0.5 0.0 0
M  V30 23 C 7.0621 -8.4142 0.0 0
M  V30 24 C 6.0621 -9.4142 0.0 0
M  V30 25 C 5.0621 -8.4142 0.0 0
M  V30 26 O 2.598 0.0 0.0 0
M  V30 27 C 1.732 -0.5 0.0 0
M  V30 28 C 0.866 0.0 0.0 0
M  V30 29 C 0.0 -0.5 0.0 0
M  V30 30 N -0.9135 -0.0932 0.0 0
M  V30 31 C -0.1045 -1.4945 0.0 0
M  V30 32 C -1.5826 -0.8364 0.0 0
M  V30 33 O -1.0826 -1.7024 0.0 0
M  V30 34 C 0.6386 -2.1636 0.0 0
M  V30 35 C -2.5771 -0.7318 0.0 0
M  V30 36 C -2.9839 0.1816 0.0 0
M  V30 37 C -3.1649 -1.5408 0.0 0
M  V30 38 C -3.9784 0.2861 0.0 0
M  V30 39 C -4.1595 -1.4363 0.0 0
M  V30 40 C -4.5662 -0.5228 0.0 0
M  V30 END ATOM
M  V30 BEGIN BOND
M  V30 1 2 1 2
M  V30 2 1 2 3
M  V30 3 1 2 4
M  V30 4 1 3 5
M  V30 5 1 3 6
M  V30 6 1 4 7 CFG=1
M  V30 7 2 5 8
M  V30 8 1 5 9
M  V30 9 1 6 10 CFG=1
M  V30 10 1 7 11
M  V30 11 1 8 12
M  V30 12 2 9 13
M  V30 13 2 10 14
M  V30 14 1 10 15
M  V30 15 2 11 16
M  V30 16 1 11 17
M  V30 17 2 12 18
M  V30 18 1 16 19
M  V30 19 2 17 20
M  V30 20 1 18 21
M  V30 21 2 19 22
M  V30 22 1 21 23
M  V30 23 1 21 24
M  V30 24 1 21 25
M  V30 25 1 22 26
M  V30 26 1 26 27
M  V30 27 1 27 28
M  V30 28 1 28 29
M  V30 29 1 29 30
M  V30 30 2 29 31
M  V30 31 2 30 32
M  V30 32 1 31 33
M  V30 33 1 31 34
M  V30 34 1 32 35
M  V30 35 2 35 36
M  V30 36 1 35 37
M  V30 37 1 36 38
M  V30 38 2 37 39
M  V30 39 2 38 40
M  V30 40 1 4 6
M  V30 41 1 13 18
M  V30 42 1 20 22
M  V30 43 1 32 33
M  V30 44 1 39 40
M  V30 END BOND
M  V30 BEGIN COLLECTION
M  V30 MDLV30/STEABS ATOMS=(2 4 6)
M  V30 END COLLECTION
M  V30 END CTAB
M  END
>  <Molecule ChEMBL ID>
CHEMBL256468

>  <Smiles>
Cc1oc(-c2ccccc2)nc1CCOc1ccc(C[C@@H]2C(=O)N(c3ccc(C(C)(C)C)cc3)[C@@H]2C(=O)O)cc1

>  <IC50_nM>
110

>  <Assay Description>
Inhibition of PPARgamma

$$$$
CHEMBL2338484
Actelion Java MolfileCreator 2.0

  0  0  0  0  0  0              0 V3000
M  V30 BEGIN CTAB
M  V30 COUNTS 28 30 0 0 0
M  V30 BEGIN ATOM
M  V30 1 Cl 2.598 2.25 0.0 0
M  V30 2 C 3.8971 1.5 0.0 0
M  V30 3 C 3.8971 0.0 0.0 0
M  V30 4 C 5.1961 2.25 0.0 0
M  V30 5 S 2.598 -0.75 0.0 0
M  V30 6 C 5.1961 -0.75 0.0 0
M  V30 7 C 6.4952 1.5 0.0 0
M  V30 8 O 1.848 -2.049 0.0 0
M  V30 9 O 3.348 -2.049 0.0 0
M  V30 10 N 1.299 0.0 0.0 0
M  V30 11 C 6.4952 0.0 0.0 0
M  V30 12 Cl 7.7942 2.25 0.0 0
M  V30 13 C 0.0 -0.75 0.0 0
M  V30 14 C -1.299 0.0 0.0 0
M  V30 15 C 0.0 -2.25 0.0 0
M  V30 16 C -2.598 -0.75 0.0 0
M  V30 17 C -1.299 -3.0 0.0 0
M  V30 18 C -3.8971 0.0 0.0 0
M  V30 19 C -2.598 -2.25 0.0 0
M  V30 20 N -5.1961 0.75 0.0 0
M  V30 21 O -3.8971 -3.0 0.0 0
M  V30 22 C -3.8971 -4.5 0.0 0
M  V30 23 C -5.1961 -5.25 0.0 0
M  V30 24 C -2.598 -5.25 0.0 0
M  V30 25 N -5.1961 -6.75 0.0 0
M  V30 26 C -2.598 -6.75 0.0 0
M  V30 27 C -3.8971 -7.5 0.0 0
M  V30 28 Cl -1.299 -7.5 0.0 0
M  V30 END ATOM
M  V30 BEGIN BOND
M  V30 1 1 1 2
M  V30 2 2 2 3
M  V30 3 1 2 4
M  V30 4 1 3 5
M  V30 5 1 3 6
M  V30 6 2 4 7
M  V30 7 2 5 8
M  V30 8 2 5 9
M  V30 9 1 5 10
M  V30 10 2 6 11
M  V30 11 1 7 12
M  V30 12 1 10 13
M  V30 13 2 13 14
M  V30 14 1 13 15
M  V30 15 1 14 16
M  V30 16 2 15 17
M  V30 17 1 16 18
M  V30 18 2 16 19
M  V30 19 3 18 20
M  V30 20 1 19 21
M  V30 21 1 21 22
M  V30 22 2 22 23
M  V30 23 1 22 24
M  V30 24 1 23 25
M  V30 25 2 24 26
M  V30 26 2 25 27
M  V30 27 1 26 28
M  V30 28 1 7 11
M  V30 29 1 17 19
M  V30 30 1 26 27
M  V30 END BOND
M  V30 END CTAB
M  END
>  <Molecule ChEMBL ID>
CHEMBL2338484

>  <Smiles>
N#Cc1cc(NS(=O)(=O)c2ccc(Cl)cc2Cl)ccc1Oc1cncc(Cl)c1

>  <IC50_nM>
110

>  <Assay Description>
Displacement of [3H]-rosiglitazone from GST-tagged PPARgammaLBD (unknown origin) after 1 hr by scintillation proximity assay

$$$$
CHEMBL192521
Actelion Java MolfileCreator 2.0

  0  0  0  0  0  0              0 V3000
M  V30 BEGIN CTAB
M  V30 COUNTS 35 37 0 0 0
M  V30 BEGIN ATOM
M  V30 1 F 9.8401 -6.2871 0.0 0
M  V30 2 C 8.7203 -5.2788 0.0 0
M  V30 3 F 7.712 -6.3986 0.0 0
M  V30 4 F 7.6005 -4.2705 0.0 0
M  V30 5 C 9.7286 -4.159 0.0 0
M  V30 6 N 9.263 -2.7259 0.0 0
M  V30 7 C 10.1487 -1.5068 0.0 0
M  V30 8 C 7.8298 -2.2602 0.0 0
M  V30 9 O 11.6555 -1.5068 0.0 0
M  V30 10 O 9.263 -0.2877 0.0 0
M  V30 11 C 7.8298 -0.7534 0.0 0
M  V30 12 C 6.5249 -3.0137 0.0 0
M  V30 13 C 6.5249 0.0 0.0 0
M  V30 14 C 5.2199 -2.2602 0.0 0
M  V30 15 C 5.2199 -0.7534 0.0 0
M  V30 16 C 6.5249 1.5068 0.0 0
M  V30 17 C 3.9556 -3.3037 0.0 0
M  V30 18 O 3.9149 0.0 0.0 0
M  V30 19 C 7.8298 2.2602 0.0 0
M  V30 20 C 3.9149 -4.5205 0.0 0
M  V30 21 C 2.6099 -0.7534 0.0 0 CFG=1
M  V30 22 C 9.1348 1.5068 0.0 0
M  V30 23 C 2.6099 -5.274 0.0 0
M  V30 24 C 1.3049 0.0 0.0 0
M  V30 25 C 2.6099 -2.2602 0.0 0
M  V30 26 C 0.0 -0.7534 0.0 0
M  V30 27 C 1.3049 1.5068 0.0 0
M  V30 28 O 3.8916 -2.8476 0.0 0
M  V30 29 O 1.3049 -3.0137 0.0 0
M  V30 30 C -1.3049 0.0 0.0 0
M  V30 31 C 0.0 2.2602 0.0 0
M  V30 32 C -1.3049 1.5068 0.0 0
M  V30 33 C -2.6099 2.2602 0.0 0
M  V30 34 C -3.9149 1.5068 0.0 0
M  V30 35 C -2.6099 3.7671 0.0 0
M  V30 END ATOM
M  V30 BEGIN BOND
M  V30 1 1 1 2
M  V30 2 1 2 3
M  V30 3 1 2 4
M  V30 4 1 2 5
M  V30 5 1 5 6
M  V30 6 1 6 7
M  V30 7 1 6 8
M  V30 8 2 7 9
M  V30 9 1 7 10
M  V30 10 2 8 11
M  V30 11 1 8 12
M  V30 12 1 11 13
M  V30 13 2 12 14
M  V30 14 2 13 15
M  V30 15 1 13 16
M  V30 16 1 14 17
M  V30 17 1 15 18
M  V30 18 1 16 19
M  V30 19 1 17 20
M  V30 20 1 21 18 CFG=3
M  V30 21 1 19 22
M  V30 22 1 20 23
M  V30 23 1 21 24
M  V30 24 1 21 25
M  V30 25 2 24 26
M  V30 26 1 24 27
M  V30 27 2 25 28
M  V30 28 1 25 29
M  V30 29 1 26 30
M  V30 30 2 27 31
M  V30 31 2 30 32
M  V30 32 1 32 33
M  V30 33 1 33 34
M  V30 34 1 33 35
M  V30 35 1 10 11
M  V30 36 1 14 15
M  V30 37 1 31 32
M  V30 END BOND
M  V30 BEGIN COLLECTION
M  V30 MDLV30/STEABS ATOMS=(1 21)
M  V30 END COLLECTION
M  V30 END CTAB
M  END
>  <Molecule ChEMBL ID>
CHEMBL192521

>  <Smiles>
CCCc1cc2c(oc(=O)n2CC(F)(F)F)c(CCC)c1O[C@H](C(=O)O)c1ccc(C(C)C)cc1

>  <IC50_nM>
110

>  <Assay Description>
In vitro binding affinity for human PPAR gamma

$$$$
CHEMBL245656
Actelion Java MolfileCreator 2.0

  0  0  0  0  0  0              0 V3000
M  V30 BEGIN CTAB
M  V30 COUNTS 41 45 0 0 0
M  V30 BEGIN ATOM
M  V30 1 O 5.1961 2.25 0.0 0
M  V30 2 C 3.8971 1.5 0.0 0
M  V30 3 O 2.598 2.25 0.0 0
M  V30 4 C 3.8971 0.0 0.0 0
M  V30 5 N 2.598 -0.75 0.0 0
M  V30 6 C 2.598 -2.25 0.0 0
M  V30 7 C 1.299 0.0 0.0 0
M  V30 8 C 3.8971 -3.0 0.0 0
M  V30 9 C 0.0 -0.75 0.0 0
M  V30 10 C 5.1961 -2.2499 0.0 0
M  V30 11 C 3.8971 -4.4999 0.0 0
M  V30 12 C -1.299 0.0 0.0 0
M  V30 13 C 0.0 -2.2499 0.0 0
M  V30 14 C 6.4951 -2.9999 0.0 0
M  V30 15 C 5.1961 -5.2499 0.0 0
M  V30 16 C -2.598 -0.7499 0.0 0
M  V30 17 C -1.299 -2.9999 0.0 0
M  V30 18 O 7.7942 -2.2499 0.0 0
M  V30 19 C 6.4951 -4.4999 0.0 0
M  V30 20 O -3.8971 0.0 0.0 0
M  V30 21 C -2.598 -2.2499 0.0 0
M  V30 22 C 9.0932 -2.9999 0.0 0
M  V30 23 C -5.1961 -0.7499 0.0 0
M  V30 24 C 10.3923 -2.2499 0.0 0
M  V30 25 C 9.0932 -4.4999 0.0 0
M  V30 26 C -6.4951 0.0 0.0 0
M  V30 27 C 11.6913 -2.9999 0.0 0
M  V30 28 C 10.3923 -5.2499 0.0 0
M  V30 29 C -7.7942 -0.7499 0.0 0
M  V30 30 C 11.6913 -4.4999 0.0 0
M  V30 31 N -9.1645 -0.1398 0.0 0
M  V30 32 C -7.951 -2.2417 0.0 0
M  V30 33 C -10.1682 -1.2546 0.0 0
M  V30 34 O -9.4182 -2.5536 0.0 0
M  V30 35 C -6.8363 -3.2454 0.0 0
M  V30 36 C -11.66 -1.0978 0.0 0
M  V30 37 C -12.2701 0.2724 0.0 0
M  V30 38 C -12.5417 -2.3113 0.0 0
M  V30 39 C -13.7619 0.4292 0.0 0
M  V30 40 C -14.0334 -2.1545 0.0 0
M  V30 41 C -14.6435 -0.7842 0.0 0
M  V30 END ATOM
M  V30 BEGIN BOND
M  V30 1 2 1 2
M  V30 2 1 2 3
M  V30 3 1 2 4
M  V30 4 1 4 5
M  V30 5 1 5 6
M  V30 6 1 5 7
M  V30 7 1 6 8
M  V30 8 1 7 9
M  V30 9 2 8 10
M  V30 10 1 8 11
M  V30 11 2 9 12
M  V30 12 1 9 13
M  V30 13 1 10 14
M  V30 14 2 11 15
M  V30 15 1 12 16
M  V30 16 2 13 17
M  V30 17 1 14 18
M  V30 18 2 14 19
M  V30 19 1 16 20
M  V30 20 2 16 21
M  V30 21 1 18 22
M  V30 22 1 20 23
M  V30 23 2 22 24
M  V30 24 1 22 25
M  V30 25 1 23 26
M  V30 26 1 24 27
M  V30 27 2 25 28
M  V30 28 1 26 29
M  V30 29 2 27 30
M  V30 30 1 29 31
M  V30 31 2 29 32
M  V30 32 2 31 33
M  V30 33 1 32 34
M  V30 34 1 32 35
M  V30 35 1 33 36
M  V30 36 2 36 37
M  V30 37 1 36 38
M  V30 38 1 37 39
M  V30 39 2 38 40
M  V30 40 2 39 41
M  V30 41 1 15 19
M  V30 42 1 17 21
M  V30 43 1 28 30
M  V30 44 1 33 34
M  V30 45 1 40 41
M  V30 END BOND
M  V30 END CTAB
M  END
>  <Molecule ChEMBL ID>
CHEMBL245656

>  <Smiles>
Cc1oc(-c2ccccc2)nc1CCOc1cccc(CN(CC(=O)O)Cc2cccc(Oc3ccccc3)c2)c1

>  <IC50_nM>
110

>  <Assay Description>
Displacement of fluorescein labeled ligand from PPARgamma receptor by fluorescence polarization assay

$$$$
CHEMBL3398447
Actelion Java MolfileCreator 2.0

  0  0  0  0  0  0              0 V3000
M  V30 BEGIN CTAB
M  V30 COUNTS 40 44 0 0 0
M  V30 BEGIN ATOM
M  V30 1 F 10.9179 -2.744 0.0 0
M  V30 2 C 10.8133 -3.7385 0.0 0
M  V30 3 F 11.8079 -3.8431 0.0 0
M  V30 4 F 10.7088 -4.7331 0.0 0
M  V30 5 C 9.8188 -3.634 0.0 0
M  V30 6 N 9.4121 -2.7205 0.0 0
M  V30 7 C 9.231 -4.443 0.0 0
M  V30 8 C 8.4176 -2.6159 0.0 0
M  V30 9 C 8.2365 -4.3385 0.0 0
M  V30 10 N 7.8298 -3.4249 0.0 0
M  V30 11 N 8.0108 -1.7024 0.0 0
M  V30 12 C 8.5108 -0.8364 0.0 0
M  V30 13 C 7.0327 -1.4945 0.0 0
M  V30 14 C 7.8417 -0.0932 0.0 0 CFG=2
M  V30 15 C 6.9282 -0.5 0.0 0 CFG=1
M  V30 16 C 8.0496 0.8848 0.0 0
M  V30 17 C 6.0621 0.0 0.0 0
M  V30 18 O 9.0007 1.1939 0.0 0
M  V30 19 O 7.3065 1.554 0.0 0
M  V30 20 C 5.1961 -0.5 0.0 0
M  V30 21 C 4.3301 0.0 0.0 0
M  V30 22 C 5.1961 -1.4999 0.0 0
M  V30 23 C 3.4641 -0.5 0.0 0
M  V30 24 C 4.3301 -1.9999 0.0 0
M  V30 25 O 2.598 0.0 0.0 0
M  V30 26 C 3.4641 -1.4999 0.0 0
M  V30 27 C 1.732 -0.5 0.0 0
M  V30 28 C 0.866 0.0 0.0 0
M  V30 29 C 0.0 -0.5 0.0 0
M  V30 30 N -0.9135 -0.0932 0.0 0
M  V30 31 C -0.1045 -1.4945 0.0 0
M  V30 32 C -1.5826 -0.8364 0.0 0
M  V30 33 O -1.0826 -1.7024 0.0 0
M  V30 34 C 0.6386 -2.1636 0.0 0
M  V30 35 C -2.5771 -0.7318 0.0 0
M  V30 36 C -2.9839 0.1816 0.0 0
M  V30 37 C -3.1649 -1.5408 0.0 0
M  V30 38 C -3.9784 0.2861 0.0 0
M  V30 39 C -4.1595 -1.4363 0.0 0
M  V30 40 C -4.5662 -0.5228 0.0 0
M  V30 END ATOM
M  V30 BEGIN BOND
M  V30 1 1 1 2
M  V30 2 1 2 3
M  V30 3 1 2 4
M  V30 4 1 2 5
M  V30 5 2 5 6
M  V30 6 1 5 7
M  V30 7 1 6 8
M  V30 8 2 7 9
M  V30 9 2 8 10
M  V30 10 1 8 11
M  V30 11 1 11 12
M  V30 12 1 11 13
M  V30 13 1 12 14
M  V30 14 1 13 15
M  V30 15 1 14 16 CFG=3
M  V30 16 1 15 17 CFG=3
M  V30 17 2 16 18
M  V30 18 1 16 19
M  V30 19 1 17 20
M  V30 20 2 20 21
M  V30 21 1 20 22
M  V30 22 1 21 23
M  V30 23 2 22 24
M  V30 24 1 23 25
M  V30 25 2 23 26
M  V30 26 1 25 27
M  V30 27 1 27 28
M  V30 28 1 28 29
M  V30 29 1 29 30
M  V30 30 2 29 31
M  V30 31 2 30 32
M  V30 32 1 31 33
M  V30 33 1 31 34
M  V30 34 1 32 35
M  V30 35 2 35 36
M  V30 36 1 35 37
M  V30 37 1 36 38
M  V30 38 2 37 39
M  V30 39 2 38 40
M  V30 40 1 9 10
M  V30 41 1 14 15
M  V30 42 1 24 26
M  V30 43 1 32 33
M  V30 44 1 39 40
M  V30 END BOND
M  V30 BEGIN COLLECTION
M  V30 MDLV30/STEABS ATOMS=(2 14 15)
M  V30 END COLLECTION
M  V30 END CTAB
M  END
>  <Molecule ChEMBL ID>
CHEMBL3398447

>  <Smiles>
Cc1oc(-c2ccccc2)nc1CCOc1cccc(C[C@H]2CN(c3nccc(C(F)(F)F)n3)C[C@H]2C(=O)O)c1

>  <IC50_nM>
110

>  <Assay Description>
Binding affinity to PPARgamma (unknown origin) using fluorescein-tagged dual PPARalpha/gamma activator by homogeneous fluorescence polarization binding assay

$$$$
CHEMBL404646
Actelion Java MolfileCreator 2.0

  0  0  0  0  0  0              0 V3000
M  V30 BEGIN CTAB
M  V30 COUNTS 42 46 0 0 0
M  V30 BEGIN ATOM
M  V30 1 O 6.687 -2.3319 0.0 0
M  V30 2 C 7.187 -1.4659 0.0 0
M  V30 3 N 8.1529 -1.2071 0.0 0
M  V30 4 C 6.9282 -0.5 0.0 0 CFG=2
M  V30 5 C 9.0189 -1.7071 0.0 0
M  V30 6 C 7.8941 -0.2411 0.0 0 CFG=1
M  V30 7 C 6.0621 0.0 0.0 0
M  V30 8 C 9.0189 -2.7071 0.0 0
M  V30 9 C 9.8849 -1.2071 0.0 0
M  V30 10 C 8.3941 0.6248 0.0 0
M  V30 11 C 5.1961 -0.5 0.0 0
M  V30 12 C 9.8849 -3.2071 0.0 0
M  V30 13 C 10.751 -1.7071 0.0 0
M  V30 14 O 9.3941 0.6248 0.0 0
M  V30 15 O 7.8941 1.4908 0.0 0
M  V30 16 C 4.3301 0.0 0.0 0
M  V30 17 C 5.1961 -1.4999 0.0 0
M  V30 18 C 10.751 -2.7071 0.0 0
M  V30 19 C 3.4641 -0.5 0.0 0
M  V30 20 C 4.3301 -1.9999 0.0 0
M  V30 21 C 11.617 -3.2071 0.0 0
M  V30 22 O 2.598 0.0 0.0 0
M  V30 23 C 3.4641 -1.4999 0.0 0
M  V30 24 C 12.117 -2.341 0.0 0
M  V30 25 C 12.483 -3.7071 0.0 0
M  V30 26 C 11.117 -4.0731 0.0 0
M  V30 27 C 1.732 -0.5 0.0 0
M  V30 28 C 0.866 0.0 0.0 0
M  V30 29 C 0.0 -0.5 0.0 0
M  V30 30 N -0.9135 -0.0932 0.0 0
M  V30 31 C -0.1045 -1.4945 0.0 0
M  V30 32 C -1.5826 -0.8364 0.0 0
M  V30 33 O -1.0826 -1.7024 0.0 0
M  V30 34 C 0.6386 -2.1636 0.0 0
M  V30 35 C -2.5771 -0.7318 0.0 0
M  V30 36 C -2.9839 0.1816 0.0 0
M  V30 37 C -3.1649 -1.5408 0.0 0
M  V30 38 C -3.9784 0.2861 0.0 0
M  V30 39 C -4.1595 -1.4363 0.0 0
M  V30 40 O -4.3851 1.1997 0.0 0
M  V30 41 C -4.5662 -0.5228 0.0 0
M  V30 42 C -5.3797 1.3042 0.0 0
M  V30 END ATOM
M  V30 BEGIN BOND
M  V30 1 2 1 2
M  V30 2 1 2 3
M  V30 3 1 2 4
M  V30 4 1 3 5
M  V30 5 1 3 6
M  V30 6 1 4 7 CFG=1
M  V30 7 2 5 8
M  V30 8 1 5 9
M  V30 9 1 6 10 CFG=1
M  V30 10 1 7 11
M  V30 11 1 8 12
M  V30 12 2 9 13
M  V30 13 2 10 14
M  V30 14 1 10 15
M  V30 15 2 11 16
M  V30 16 1 11 17
M  V30 17 2 12 18
M  V30 18 1 16 19
M  V30 19 2 17 20
M  V30 20 1 18 21
M  V30 21 1 19 22
M  V30 22 2 19 23
M  V30 23 1 21 24
M  V30 24 1 21 25
M  V30 25 1 21 26
M  V30 26 1 22 27
M  V30 27 1 27 28
M  V30 28 1 28 29
M  V30 29 1 29 30
M  V30 30 2 29 31
M  V30 31 2 30 32
M  V30 32 1 31 33
M  V30 33 1 31 34
M  V30 34 1 32 35
M  V30 35 2 35 36
M  V30 36 1 35 37
M  V30 37 1 36 38
M  V30 38 2 37 39
M  V30 39 1 38 40
M  V30 40 2 38 41
M  V30 41 1 40 42
M  V30 42 1 4 6
M  V30 43 1 13 18
M  V30 44 1 20 23
M  V30 45 1 32 33
M  V30 46 1 39 41
M  V30 END BOND
M  V30 BEGIN COLLECTION
M  V30 MDLV30/STEABS ATOMS=(2 4 6)
M  V30 END COLLECTION
M  V30 END CTAB
M  END
>  <Molecule ChEMBL ID>
CHEMBL404646

>  <Smiles>
COc1cccc(-c2nc(CCOc3cccc(C[C@@H]4C(=O)N(c5ccc(C(C)(C)C)cc5)[C@@H]4C(=O)O)c3)c(C)o2)c1

>  <IC50_nM>
110

>  <Assay Description>
Inhibition of PPARgamma

$$$$
CHEMBL279053
Actelion Java MolfileCreator 2.0

  0  0  0  0  0  0              0 V3000
M  V30 BEGIN CTAB
M  V30 COUNTS 30 32 0 0 0
M  V30 BEGIN ATOM
M  V30 1 Cl 9.0932 1.5 0.0 0
M  V30 2 C 9.0932 0.0 0.0 0
M  V30 3 C 7.7942 -0.75 0.0 0
M  V30 4 C 10.3923 -0.7499 0.0 0
M  V30 5 S 6.4951 0.0 0.0 0
M  V30 6 C 7.7942 -2.25 0.0 0
M  V30 7 C 10.3923 -2.2499 0.0 0
M  V30 8 C 5.1961 -0.75 0.0 0
M  V30 9 C 9.0932 -2.9999 0.0 0
M  V30 10 C 11.6913 -2.9999 0.0 0
M  V30 11 C 3.8971 0.0 0.0 0
M  V30 12 C 11.6913 -4.4999 0.0 0
M  V30 13 C 2.598 -0.75 0.0 0
M  V30 14 O 10.3923 -5.2499 0.0 0
M  V30 15 O 12.9903 -5.2499 0.0 0
M  V30 16 O 1.299 0.0 0.0 0
M  V30 17 C 0.0 -0.75 0.0 0
M  V30 18 C -1.299 0.0 0.0 0
M  V30 19 C 0.0 -2.25 0.0 0
M  V30 20 C -2.598 -0.7499 0.0 0
M  V30 21 C -1.299 1.5 0.0 0
M  V30 22 C -1.299 -2.9999 0.0 0
M  V30 23 O -4.0246 -0.2864 0.0 0
M  V30 24 C -2.598 -2.2499 0.0 0
M  V30 25 C 0.0 2.25 0.0 0
M  V30 26 N -4.9063 -1.4999 0.0 0
M  V30 27 C -4.0246 -2.7135 0.0 0
M  V30 28 C 0.0 3.75 0.0 0
M  V30 29 C -4.4881 -4.1401 0.0 0
M  V30 30 C -3.4844 -5.2548 0.0 0
M  V30 END ATOM
M  V30 BEGIN BOND
M  V30 1 1 1 2
M  V30 2 2 2 3
M  V30 3 1 2 4
M  V30 4 1 3 5
M  V30 5 1 3 6
M  V30 6 2 4 7
M  V30 7 1 5 8
M  V30 8 2 6 9
M  V30 9 1 7 10
M  V30 10 1 8 11
M  V30 11 1 10 12
M  V30 12 1 11 13
M  V30 13 2 12 14
M  V30 14 1 12 15
M  V30 15 1 13 16
M  V30 16 1 16 17
M  V30 17 2 17 18
M  V30 18 1 17 19
M  V30 19 1 18 20
M  V30 20 1 18 21
M  V30 21 2 19 22
M  V30 22 1 20 23
M  V30 23 2 20 24
M  V30 24 1 21 25
M  V30 25 1 23 26
M  V30 26 1 24 27
M  V30 27 1 25 28
M  V30 28 1 27 29
M  V30 29 1 29 30
M  V30 30 1 7 9
M  V30 31 1 22 24
M  V30 32 2 26 27
M  V30 END BOND
M  V30 END CTAB
M  END
>  <Molecule ChEMBL ID>
CHEMBL279053

>  <Smiles>
CCCc1c(OCCCSc2ccc(CC(=O)O)cc2Cl)ccc2c(CC)noc12

>  <IC50_nM>
110

>  <Assay Description>
In vitro binding affinity for human PPAR gamma in SPA

$$$$
CHEMBL2031955
Actelion Java MolfileCreator 2.0

  0  0  0  0  0  0              0 V3000
M  V30 BEGIN CTAB
M  V30 COUNTS 27 28 0 0 0
M  V30 BEGIN ATOM
M  V30 1 O 7.7942 1.0 0.0 0
M  V30 2 C 7.7942 0.0 0.0 0
M  V30 3 C 6.9282 -0.5 0.0 0
M  V30 4 C 8.6602 -0.4999 0.0 0
M  V30 5 C 6.9282 -1.4999 0.0 0
M  V30 6 C 6.0621 0.0 0.0 0
M  V30 7 C 8.6602 -1.4999 0.0 0
M  V30 8 O 6.0621 -1.9999 0.0 0
M  V30 9 C 7.7942 -2.0 0.0 0
M  V30 10 C 5.1961 -0.5 0.0 0
M  V30 11 C 9.5262 -1.9999 0.0 0
M  V30 12 C 4.3301 0.0 0.0 0
M  V30 13 C 9.5262 -2.9999 0.0 0
M  V30 14 C 3.4641 -0.5 0.0 0
M  V30 15 C 4.3301 1.0 0.0 0
M  V30 16 C 10.3923 -3.4999 0.0 0
M  V30 17 C 2.598 0.0 0.0 0
M  V30 18 C 10.3923 -4.4999 0.0 0
M  V30 19 C 11.2583 -2.9999 0.0 0
M  V30 20 C 1.732 -0.5 0.0 0
M  V30 21 C 11.2583 -4.9999 0.0 0
M  V30 22 C 12.1243 -3.4999 0.0 0
M  V30 23 C 0.866 0.0 0.0 0
M  V30 24 C 12.1243 -4.4999 0.0 0
M  V30 25 C 0.866 1.0 0.0 0
M  V30 26 C 0.0 -0.5 0.0 0
M  V30 27 O 12.9903 -4.9999 0.0 0
M  V30 END ATOM
M  V30 BEGIN BOND
M  V30 1 1 1 2
M  V30 2 2 2 3
M  V30 3 1 2 4
M  V30 4 1 3 5
M  V30 5 1 3 6
M  V30 6 2 4 7
M  V30 7 1 5 8
M  V30 8 2 5 9
M  V30 9 1 6 10
M  V30 10 1 7 11
M  V30 11 2 10 12
M  V30 12 2 11 13
M  V30 13 1 12 14
M  V30 14 1 12 15
M  V30 15 1 13 16
M  V30 16 1 14 17
M  V30 17 2 16 18
M  V30 18 1 16 19
M  V30 19 1 17 20
M  V30 20 1 18 21
M  V30 21 2 19 22
M  V30 22 2 20 23
M  V30 23 2 21 24
M  V30 24 1 23 25
M  V30 25 1 23 26
M  V30 26 1 24 27
M  V30 27 1 7 9
M  V30 28 1 22 24
M  V30 END BOND
M  V30 END CTAB
M  END
>  <Molecule ChEMBL ID>
CHEMBL2031955

>  <Smiles>
CC(C)=CCC/C(C)=C/Cc1c(O)cc(/C=C/c2ccc(O)cc2)cc1O

>  <IC50_nM>
110

>  <Assay Description>
Binding affinity to GST-tagged human PPARgamma by TR-FRET analysis

$$$$
CHEMBL279053
Actelion Java MolfileCreator 2.0

  0  0  0  0  0  0              0 V3000
M  V30 BEGIN CTAB
M  V30 COUNTS 30 32 0 0 0
M  V30 BEGIN ATOM
M  V30 1 Cl 9.0932 1.5 0.0 0
M  V30 2 C 9.0932 0.0 0.0 0
M  V30 3 C 7.7942 -0.75 0.0 0
M  V30 4 C 10.3923 -0.7499 0.0 0
M  V30 5 S 6.4951 0.0 0.0 0
M  V30 6 C 7.7942 -2.25 0.0 0
M  V30 7 C 10.3923 -2.2499 0.0 0
M  V30 8 C 5.1961 -0.75 0.0 0
M  V30 9 C 9.0932 -2.9999 0.0 0
M  V30 10 C 11.6913 -2.9999 0.0 0
M  V30 11 C 3.8971 0.0 0.0 0
M  V30 12 C 11.6913 -4.4999 0.0 0
M  V30 13 C 2.598 -0.75 0.0 0
M  V30 14 O 10.3923 -5.2499 0.0 0
M  V30 15 O 12.9903 -5.2499 0.0 0
M  V30 16 O 1.299 0.0 0.0 0
M  V30 17 C 0.0 -0.75 0.0 0
M  V30 18 C -1.299 0.0 0.0 0
M  V30 19 C 0.0 -2.25 0.0 0
M  V30 20 C -2.598 -0.7499 0.0 0
M  V30 21 C -1.299 1.5 0.0 0
M  V30 22 C -1.299 -2.9999 0.0 0
M  V30 23 O -4.0246 -0.2864 0.0 0
M  V30 24 C -2.598 -2.2499 0.0 0
M  V30 25 C 0.0 2.25 0.0 0
M  V30 26 N -4.9063 -1.4999 0.0 0
M  V30 27 C -4.0246 -2.7135 0.0 0
M  V30 28 C 0.0 3.75 0.0 0
M  V30 29 C -4.4881 -4.1401 0.0 0
M  V30 30 C -3.4844 -5.2548 0.0 0
M  V30 END ATOM
M  V30 BEGIN BOND
M  V30 1 1 1 2
M  V30 2 2 2 3
M  V30 3 1 2 4
M  V30 4 1 3 5
M  V30 5 1 3 6
M  V30 6 2 4 7
M  V30 7 1 5 8
M  V30 8 2 6 9
M  V30 9 1 7 10
M  V30 10 1 8 11
M  V30 11 1 10 12
M  V30 12 1 11 13
M  V30 13 2 12 14
M  V30 14 1 12 15
M  V30 15 1 13 16
M  V30 16 1 16 17
M  V30 17 2 17 18
M  V30 18 1 17 19
M  V30 19 1 18 20
M  V30 20 1 18 21
M  V30 21 2 19 22
M  V30 22 1 20 23
M  V30 23 2 20 24
M  V30 24 1 21 25
M  V30 25 1 23 26
M  V30 26 1 24 27
M  V30 27 1 25 28
M  V30 28 1 27 29
M  V30 29 1 29 30
M  V30 30 1 7 9
M  V30 31 1 22 24
M  V30 32 2 26 27
M  V30 END BOND
M  V30 END CTAB
M  END
>  <Molecule ChEMBL ID>
CHEMBL279053

>  <Smiles>
CCCc1c(OCCCSc2ccc(CC(=O)O)cc2Cl)ccc2c(CC)noc12

>  <IC50_nM>
110

>  <Assay Description>
Displacement of radio-labeled full agonist from PPARgamma receptor

$$$$
CHEMBL121
Actelion Java MolfileCreator 2.0

  0  0  0  0  0  0              0 V3000
M  V30 BEGIN CTAB
M  V30 COUNTS 25 27 0 0 0
M  V30 BEGIN ATOM
M  V30 1 S 7.8987 0.0054 0.0 0
M  V30 2 C 8.8769 -0.2024 0.0 0
M  V30 3 C 7.7942 0.9999 0.0 0 CFG=2
M  V30 4 O 9.2836 -1.1159 0.0 0
M  V30 5 N 9.3769 0.6635 0.0 0
M  V30 6 C 8.7077 1.4067 0.0 0
M  V30 7 C 6.9282 1.4999 0.0 0
M  V30 8 O 8.9156 2.3848 0.0 0
M  V30 9 C 6.0621 0.9999 0.0 0
M  V30 10 C 5.1961 1.4999 0.0 0
M  V30 11 C 6.0621 0.0 0.0 0
M  V30 12 C 4.3301 0.9999 0.0 0
M  V30 13 C 5.1961 -0.5 0.0 0
M  V30 14 C 4.3301 0.0 0.0 0
M  V30 15 O 3.4641 -0.5 0.0 0
M  V30 16 C 2.598 0.0 0.0 0
M  V30 17 C 1.732 -0.5 0.0 0
M  V30 18 N 0.866 0.0 0.0 0
M  V30 19 C 0.866 1.0 0.0 0
M  V30 20 C 0.0 -0.5 0.0 0
M  V30 21 N 1.732 1.4999 0.0 0
M  V30 22 C 0.0 1.4999 0.0 0
M  V30 23 C 1.732 2.5 0.0 0
M  V30 24 C 0.0 2.5 0.0 0
M  V30 25 C 0.866 3.0 0.0 0
M  V30 END ATOM
M  V30 BEGIN BOND
M  V30 1 1 1 2
M  V30 2 1 1 3
M  V30 3 2 2 4
M  V30 4 1 2 5
M  V30 5 1 3 6
M  V30 6 1 3 7 CFG=1
M  V30 7 2 6 8
M  V30 8 1 7 9
M  V30 9 2 9 10
M  V30 10 1 9 11
M  V30 11 1 10 12
M  V30 12 2 11 13
M  V30 13 2 12 14
M  V30 14 1 14 15
M  V30 15 1 15 16
M  V30 16 1 16 17
M  V30 17 1 17 18
M  V30 18 1 18 19
M  V30 19 1 18 20
M  V30 20 2 19 21
M  V30 21 1 19 22
M  V30 22 1 21 23
M  V30 23 2 22 24
M  V30 24 2 23 25
M  V30 25 1 5 6
M  V30 26 1 13 14
M  V30 27 1 24 25
M  V30 END BOND
M  V30 BEGIN COLLECTION
M  V30 MDLV30/STERAC1 ATOMS=(1 3)
M  V30 END COLLECTION
M  V30 END CTAB
M  END
>  <Molecule ChEMBL ID>
CHEMBL121

>  <Smiles>
CN(CCOc1ccc(CC2SC(=O)NC2=O)cc1)c1ccccn1

>  <IC50_nM>
112

>  <Assay Description>
Competitive displacement of fluorescently labelled PPAR tracer ligand from GST-tagged human PPARgamma ligand binding domain after 1 hr in dark by TR-FRET competitive binding assay

$$$$
CHEMBL521131
Actelion Java MolfileCreator 2.0

  0  0  0  0  0  0              0 V3000
M  V30 BEGIN CTAB
M  V30 COUNTS 32 35 0 0 0
M  V30 BEGIN ATOM
M  V30 1 O 6.9282 -4.5 0.0 0
M  V30 2 C 6.9282 -3.5 0.0 0
M  V30 3 O 7.7942 -3.0 0.0 0
M  V30 4 C 6.0621 -3.0 0.0 0 CFG=1
M  V30 5 O 5.1961 -3.5 0.0 0
M  V30 6 C 6.0621 -1.9999 0.0 0
M  V30 7 C 5.1961 -4.4999 0.0 0
M  V30 8 C 5.1961 -1.4999 0.0 0
M  V30 9 C 5.1961 -0.5 0.0 0
M  V30 10 C 4.3301 -1.9999 0.0 0
M  V30 11 C 4.3301 0.0 0.0 0
M  V30 12 C 6.0621 0.0 0.0 0
M  V30 13 C 3.4641 -1.5 0.0 0
M  V30 14 C 3.4641 -0.5 0.0 0
M  V30 15 C 4.3301 1.0 0.0 0
M  V30 16 C 6.0621 1.0 0.0 0
M  V30 17 O 2.598 0.0 0.0 0
M  V30 18 C 5.1961 1.5 0.0 0
M  V30 19 C 1.732 -0.5 0.0 0
M  V30 20 C 0.866 0.0 0.0 0
M  V30 21 C 0.0 -0.5 0.0 0
M  V30 22 N -0.9135 -0.0932 0.0 0
M  V30 23 C -0.1045 -1.4945 0.0 0
M  V30 24 C -1.5826 -0.8364 0.0 0
M  V30 25 O -1.0826 -1.7024 0.0 0
M  V30 26 C 0.6386 -2.1636 0.0 0
M  V30 27 C -2.5771 -0.7318 0.0 0
M  V30 28 C -2.9839 0.1816 0.0 0
M  V30 29 C -3.1649 -1.5408 0.0 0
M  V30 30 C -3.9784 0.2861 0.0 0
M  V30 31 C -4.1595 -1.4363 0.0 0
M  V30 32 C -4.5662 -0.5228 0.0 0
M  V30 END ATOM
M  V30 BEGIN BOND
M  V30 1 2 1 2
M  V30 2 1 2 3
M  V30 3 1 2 4
M  V30 4 1 4 5 CFG=1
M  V30 5 1 4 6
M  V30 6 1 5 7
M  V30 7 1 6 8
M  V30 8 1 8 9
M  V30 9 2 8 10
M  V30 10 1 9 11
M  V30 11 2 9 12
M  V30 12 1 10 13
M  V30 13 1 11 14
M  V30 14 2 11 15
M  V30 15 1 12 16
M  V30 16 1 14 17
M  V30 17 1 15 18
M  V30 18 1 17 19
M  V30 19 1 19 20
M  V30 20 1 20 21
M  V30 21 1 21 22
M  V30 22 2 21 23
M  V30 23 2 22 24
M  V30 24 1 23 25
M  V30 25 1 23 26
M  V30 26 1 24 27
M  V30 27 2 27 28
M  V30 28 1 27 29
M  V30 29 1 28 30
M  V30 30 2 29 31
M  V30 31 2 30 32
M  V30 32 2 13 14
M  V30 33 2 16 18
M  V30 34 1 24 25
M  V30 35 1 31 32
M  V30 END BOND
M  V30 BEGIN COLLECTION
M  V30 MDLV30/STERAC1 ATOMS=(1 4)
M  V30 END COLLECTION
M  V30 END CTAB
M  END
>  <Molecule ChEMBL ID>
CHEMBL521131

>  <Smiles>
COC(Cc1ccc(OCCc2nc(-c3ccccc3)oc2C)c2ccccc12)C(=O)O

>  <IC50_nM>
113

>  <Assay Description>
Displacement of radio labeled 2(S)-(2-benzoyl-phenylamino)-3-{4-[1,1-ditritio-2-(5-methyl-2-phenyl-oxazol-4-yl)-ethoxy]-phenyl}-propionic acid from GST-fused human PPARgamma expressed in Escherichia coli BL21 cells by scintillation proximity assay

$$$$
CHEMBL237710
Actelion Java MolfileCreator 2.0

  0  0  0  0  0  0              0 V3000
M  V30 BEGIN CTAB
M  V30 COUNTS 42 45 0 0 0
M  V30 BEGIN ATOM
M  V30 1 F 8.3432 -4.299 0.0 0
M  V30 2 C 9.0932 -3.0 0.0 0
M  V30 3 F 10.3923 -3.75 0.0 0
M  V30 4 F 9.8432 -1.7009 0.0 0
M  V30 5 C 7.7942 -2.25 0.0 0
M  V30 6 C 6.4951 -3.0 0.0 0
M  V30 7 C 7.7942 -0.75 0.0 0
M  V30 8 C 5.1961 -2.25 0.0 0
M  V30 9 C 6.4951 0.0 0.0 0
M  V30 10 O 3.8971 -3.0 0.0 0
M  V30 11 C 5.1961 -0.75 0.0 0
M  V30 12 C 3.8971 -4.5 0.0 0
M  V30 13 C 3.8971 0.0 0.0 0
M  V30 14 C 2.598 -5.25 0.0 0
M  V30 15 C 5.1961 -5.25 0.0 0
M  V30 16 O 3.8971 1.5 0.0 0
M  V30 17 N 2.598 -0.75 0.0 0
M  V30 18 C 2.598 -6.75 0.0 0
M  V30 19 C 5.1961 -6.75 0.0 0
M  V30 20 C 1.299 0.0 0.0 0
M  V30 21 C 3.8971 -7.5 0.0 0
M  V30 22 C 0.0 -0.75 0.0 0
M  V30 23 C -1.299 0.0 0.0 0
M  V30 24 C 0.0 -2.25 0.0 0
M  V30 25 C -2.598 -0.75 0.0 0
M  V30 26 C -1.299 -3.0 0.0 0
M  V30 27 O -3.8971 0.0 0.0 0
M  V30 28 C -2.598 -2.25 0.0 0
M  V30 29 C -5.1961 -0.75 0.0 0
M  V30 30 C -6.4951 0.0 0.0 0
M  V30 31 C -5.1961 -2.25 0.0 0
M  V30 32 C -7.7942 -0.75 0.0 0
M  V30 33 C -6.4951 -3.0 0.0 0
M  V30 34 C -7.7942 -2.25 0.0 0
M  V30 35 C -9.0932 0.0 0.0 0
M  V30 36 O -9.0932 -3.0 0.0 0
M  V30 37 C -9.0932 -4.5 0.0 0
M  V30 38 C -10.3923 -5.25 0.0 0
M  V30 39 C -8.3433 -5.799 0.0 0
M  V30 40 C -7.5933 -4.4999 0.0 0
M  V30 41 O -11.6913 -4.5 0.0 0
M  V30 42 O -10.3923 -6.75 0.0 0
M  V30 END ATOM
M  V30 BEGIN BOND
M  V30 1 1 1 2
M  V30 2 1 2 3
M  V30 3 1 2 4
M  V30 4 1 2 5
M  V30 5 2 5 6
M  V30 6 1 5 7
M  V30 7 1 6 8
M  V30 8 2 7 9
M  V30 9 1 8 10
M  V30 10 2 8 11
M  V30 11 1 10 12
M  V30 12 1 11 13
M  V30 13 2 12 14
M  V30 14 1 12 15
M  V30 15 2 13 16
M  V30 16 1 13 17
M  V30 17 1 14 18
M  V30 18 2 15 19
M  V30 19 1 17 20
M  V30 20 2 18 21
M  V30 21 1 20 22
M  V30 22 2 22 23
M  V30 23 1 22 24
M  V30 24 1 23 25
M  V30 25 2 24 26
M  V30 26 1 25 27
M  V30 27 2 25 28
M  V30 28 1 27 29
M  V30 29 2 29 30
M  V30 30 1 29 31
M  V30 31 1 30 32
M  V30 32 2 31 33
M  V30 33 2 32 34
M  V30 34 1 32 35
M  V30 35 1 34 36
M  V30 36 1 36 37
M  V30 37 1 37 38
M  V30 38 1 37 39
M  V30 39 1 37 40
M  V30 40 2 38 41
M  V30 41 1 38 42
M  V30 42 1 9 11
M  V30 43 1 19 21
M  V30 44 1 26 28
M  V30 45 1 33 34
M  V30 END BOND
M  V30 END CTAB
M  END
>  <Molecule ChEMBL ID>
CHEMBL237710

>  <Smiles>
Cc1cc(Oc2cccc(CNC(=O)c3ccc(C(F)(F)F)cc3Oc3ccccc3)c2)ccc1OC(C)(C)C(=O)O

>  <IC50_nM>
114

>  <Assay Description>
Agonist activity at PPARgamma

$$$$
CHEMBL237710
Actelion Java MolfileCreator 2.0

  0  0  0  0  0  0              0 V3000
M  V30 BEGIN CTAB
M  V30 COUNTS 42 45 0 0 0
M  V30 BEGIN ATOM
M  V30 1 F 8.3432 -4.299 0.0 0
M  V30 2 C 9.0932 -3.0 0.0 0
M  V30 3 F 10.3923 -3.75 0.0 0
M  V30 4 F 9.8432 -1.7009 0.0 0
M  V30 5 C 7.7942 -2.25 0.0 0
M  V30 6 C 6.4951 -3.0 0.0 0
M  V30 7 C 7.7942 -0.75 0.0 0
M  V30 8 C 5.1961 -2.25 0.0 0
M  V30 9 C 6.4951 0.0 0.0 0
M  V30 10 O 3.8971 -3.0 0.0 0
M  V30 11 C 5.1961 -0.75 0.0 0
M  V30 12 C 3.8971 -4.5 0.0 0
M  V30 13 C 3.8971 0.0 0.0 0
M  V30 14 C 2.598 -5.25 0.0 0
M  V30 15 C 5.1961 -5.25 0.0 0
M  V30 16 O 3.8971 1.5 0.0 0
M  V30 17 N 2.598 -0.75 0.0 0
M  V30 18 C 2.598 -6.75 0.0 0
M  V30 19 C 5.1961 -6.75 0.0 0
M  V30 20 C 1.299 0.0 0.0 0
M  V30 21 C 3.8971 -7.5 0.0 0
M  V30 22 C 0.0 -0.75 0.0 0
M  V30 23 C -1.299 0.0 0.0 0
M  V30 24 C 0.0 -2.25 0.0 0
M  V30 25 C -2.598 -0.75 0.0 0
M  V30 26 C -1.299 -3.0 0.0 0
M  V30 27 O -3.8971 0.0 0.0 0
M  V30 28 C -2.598 -2.25 0.0 0
M  V30 29 C -5.1961 -0.75 0.0 0
M  V30 30 C -6.4951 0.0 0.0 0
M  V30 31 C -5.1961 -2.25 0.0 0
M  V30 32 C -7.7942 -0.75 0.0 0
M  V30 33 C -6.4951 -3.0 0.0 0
M  V30 34 C -7.7942 -2.25 0.0 0
M  V30 35 C -9.0932 0.0 0.0 0
M  V30 36 O -9.0932 -3.0 0.0 0
M  V30 37 C -9.0932 -4.5 0.0 0
M  V30 38 C -10.3923 -5.25 0.0 0
M  V30 39 C -8.3433 -5.799 0.0 0
M  V30 40 C -7.5933 -4.4999 0.0 0
M  V30 41 O -11.6913 -4.5 0.0 0
M  V30 42 O -10.3923 -6.75 0.0 0
M  V30 END ATOM
M  V30 BEGIN BOND
M  V30 1 1 1 2
M  V30 2 1 2 3
M  V30 3 1 2 4
M  V30 4 1 2 5
M  V30 5 2 5 6
M  V30 6 1 5 7
M  V30 7 1 6 8
M  V30 8 2 7 9
M  V30 9 1 8 10
M  V30 10 2 8 11
M  V30 11 1 10 12
M  V30 12 1 11 13
M  V30 13 2 12 14
M  V30 14 1 12 15
M  V30 15 2 13 16
M  V30 16 1 13 17
M  V30 17 1 14 18
M  V30 18 2 15 19
M  V30 19 1 17 20
M  V30 20 2 18 21
M  V30 21 1 20 22
M  V30 22 2 22 23
M  V30 23 1 22 24
M  V30 24 1 23 25
M  V30 25 2 24 26
M  V30 26 1 25 27
M  V30 27 2 25 28
M  V30 28 1 27 29
M  V30 29 2 29 30
M  V30 30 1 29 31
M  V30 31 1 30 32
M  V30 32 2 31 33
M  V30 33 2 32 34
M  V30 34 1 32 35
M  V30 35 1 34 36
M  V30 36 1 36 37
M  V30 37 1 37 38
M  V30 38 1 37 39
M  V30 39 1 37 40
M  V30 40 2 38 41
M  V30 41 1 38 42
M  V30 42 1 9 11
M  V30 43 1 19 21
M  V30 44 1 26 28
M  V30 45 1 33 34
M  V30 END BOND
M  V30 END CTAB
M  END
>  <Molecule ChEMBL ID>
CHEMBL237710

>  <Smiles>
Cc1cc(Oc2cccc(CNC(=O)c3ccc(C(F)(F)F)cc3Oc3ccccc3)c2)ccc1OC(C)(C)C(=O)O

>  <IC50_nM>
114

>  <Assay Description>
Displacement of [3H]2-methyl-2-(4-{3-{propyl-(5-pyridin-2-yl-thiophene-2-sulfonyl)-amino}-propyl}-phenoxy)-propionic acid from human PPARgamma

$$$$
CHEMBL237710
Actelion Java MolfileCreator 2.0

  0  0  0  0  0  0              0 V3000
M  V30 BEGIN CTAB
M  V30 COUNTS 42 45 0 0 0
M  V30 BEGIN ATOM
M  V30 1 F 8.3432 -4.299 0.0 0
M  V30 2 C 9.0932 -3.0 0.0 0
M  V30 3 F 10.3923 -3.75 0.0 0
M  V30 4 F 9.8432 -1.7009 0.0 0
M  V30 5 C 7.7942 -2.25 0.0 0
M  V30 6 C 6.4951 -3.0 0.0 0
M  V30 7 C 7.7942 -0.75 0.0 0
M  V30 8 C 5.1961 -2.25 0.0 0
M  V30 9 C 6.4951 0.0 0.0 0
M  V30 10 O 3.8971 -3.0 0.0 0
M  V30 11 C 5.1961 -0.75 0.0 0
M  V30 12 C 3.8971 -4.5 0.0 0
M  V30 13 C 3.8971 0.0 0.0 0
M  V30 14 C 2.598 -5.25 0.0 0
M  V30 15 C 5.1961 -5.25 0.0 0
M  V30 16 O 3.8971 1.5 0.0 0
M  V30 17 N 2.598 -0.75 0.0 0
M  V30 18 C 2.598 -6.75 0.0 0
M  V30 19 C 5.1961 -6.75 0.0 0
M  V30 20 C 1.299 0.0 0.0 0
M  V30 21 C 3.8971 -7.5 0.0 0
M  V30 22 C 0.0 -0.75 0.0 0
M  V30 23 C -1.299 0.0 0.0 0
M  V30 24 C 0.0 -2.25 0.0 0
M  V30 25 C -2.598 -0.75 0.0 0
M  V30 26 C -1.299 -3.0 0.0 0
M  V30 27 O -3.8971 0.0 0.0 0
M  V30 28 C -2.598 -2.25 0.0 0
M  V30 29 C -5.1961 -0.75 0.0 0
M  V30 30 C -6.4951 0.0 0.0 0
M  V30 31 C -5.1961 -2.25 0.0 0
M  V30 32 C -7.7942 -0.75 0.0 0
M  V30 33 C -6.4951 -3.0 0.0 0
M  V30 34 C -7.7942 -2.25 0.0 0
M  V30 35 C -9.0932 0.0 0.0 0
M  V30 36 O -9.0932 -3.0 0.0 0
M  V30 37 C -9.0932 -4.5 0.0 0
M  V30 38 C -10.3923 -5.25 0.0 0
M  V30 39 C -8.3433 -5.799 0.0 0
M  V30 40 C -7.5933 -4.4999 0.0 0
M  V30 41 O -11.6913 -4.5 0.0 0
M  V30 42 O -10.3923 -6.75 0.0 0
M  V30 END ATOM
M  V30 BEGIN BOND
M  V30 1 1 1 2
M  V30 2 1 2 3
M  V30 3 1 2 4
M  V30 4 1 2 5
M  V30 5 2 5 6
M  V30 6 1 5 7
M  V30 7 1 6 8
M  V30 8 2 7 9
M  V30 9 1 8 10
M  V30 10 2 8 11
M  V30 11 1 10 12
M  V30 12 1 11 13
M  V30 13 2 12 14
M  V30 14 1 12 15
M  V30 15 2 13 16
M  V30 16 1 13 17
M  V30 17 1 14 18
M  V30 18 2 15 19
M  V30 19 1 17 20
M  V30 20 2 18 21
M  V30 21 1 20 22
M  V30 22 2 22 23
M  V30 23 1 22 24
M  V30 24 1 23 25
M  V30 25 2 24 26
M  V30 26 1 25 27
M  V30 27 2 25 28
M  V30 28 1 27 29
M  V30 29 2 29 30
M  V30 30 1 29 31
M  V30 31 1 30 32
M  V30 32 2 31 33
M  V30 33 2 32 34
M  V30 34 1 32 35
M  V30 35 1 34 36
M  V30 36 1 36 37
M  V30 37 1 37 38
M  V30 38 1 37 39
M  V30 39 1 37 40
M  V30 40 2 38 41
M  V30 41 1 38 42
M  V30 42 1 9 11
M  V30 43 1 19 21
M  V30 44 1 26 28
M  V30 45 1 33 34
M  V30 END BOND
M  V30 END CTAB
M  END
>  <Molecule ChEMBL ID>
CHEMBL237710

>  <Smiles>
Cc1cc(Oc2cccc(CNC(=O)c3ccc(C(F)(F)F)cc3Oc3ccccc3)c2)ccc1OC(C)(C)C(=O)O

>  <IC50_nM>
114.02

>  <Assay Description>
Agonist activity at PPARgamma

$$$$
CHEMBL198605
Actelion Java MolfileCreator 2.0

  0  0  0  0  0  0              0 V3000
M  V30 BEGIN CTAB
M  V30 COUNTS 31 34 0 0 0
M  V30 BEGIN ATOM
M  V30 1 F 5.7451 1.299 0.0 0
M  V30 2 C 6.4951 0.0 0.0 0
M  V30 3 F 7.7942 0.7499 0.0 0
M  V30 4 F 7.2451 -1.299 0.0 0
M  V30 5 C 5.1961 -0.75 0.0 0
M  V30 6 C 3.8971 0.0 0.0 0
M  V30 7 C 5.1961 -2.25 0.0 0
M  V30 8 C 2.598 -0.75 0.0 0
M  V30 9 C 3.8971 -3.0 0.0 0
M  V30 10 O 1.299 0.0 0.0 0
M  V30 11 C 2.598 -2.25 0.0 0
M  V30 12 C 0.0 -0.75 0.0 0
M  V30 13 C -1.3703 -0.1398 0.0 0
M  V30 14 C -0.1567 -2.2417 0.0 0
M  V30 15 N -2.374 -1.2546 0.0 0
M  V30 16 C -1.6821 1.3273 0.0 0
M  V30 17 C -1.624 -2.5536 0.0 0
M  V30 18 C 0.8469 -3.3565 0.0 0
M  V30 19 C -3.8657 -1.0978 0.0 0
M  V30 20 O -0.5674 2.331 0.0 0
M  V30 21 O -3.1087 1.7908 0.0 0
M  V30 22 C -2.0875 -3.9802 0.0 0
M  V30 23 C 0.3833 -4.783 0.0 0
M  V30 24 C -4.4759 0.2724 0.0 0
M  V30 25 C -4.7474 -2.3113 0.0 0
M  V30 26 C -1.0838 -5.0949 0.0 0
M  V30 27 C -5.9676 0.4292 0.0 0
M  V30 28 C -6.2392 -2.1545 0.0 0
M  V30 29 C -6.8493 -0.7842 0.0 0
M  V30 30 O -8.3411 -0.6274 0.0 0
M  V30 31 C -9.2228 -1.8409 0.0 0
M  V30 END ATOM
M  V30 BEGIN BOND
M  V30 1 1 1 2
M  V30 2 1 2 3
M  V30 3 1 2 4
M  V30 4 1 2 5
M  V30 5 2 5 6
M  V30 6 1 5 7
M  V30 7 1 6 8
M  V30 8 2 7 9
M  V30 9 1 8 10
M  V30 10 2 8 11
M  V30 11 1 10 12
M  V30 12 2 12 13
M  V30 13 1 12 14
M  V30 14 1 13 15
M  V30 15 1 13 16
M  V30 16 2 14 17
M  V30 17 1 14 18
M  V30 18 1 15 19
M  V30 19 2 16 20
M  V30 20 1 16 21
M  V30 21 1 17 22
M  V30 22 2 18 23
M  V30 23 2 19 24
M  V30 24 1 19 25
M  V30 25 2 22 26
M  V30 26 1 24 27
M  V30 27 2 25 28
M  V30 28 2 27 29
M  V30 29 1 29 30
M  V30 30 1 30 31
M  V30 31 1 9 11
M  V30 32 1 15 17
M  V30 33 1 23 26
M  V30 34 1 28 29
M  V30 END BOND
M  V30 END CTAB
M  END
>  <Molecule ChEMBL ID>
CHEMBL198605

>  <Smiles>
COc1ccc(-n2c(C(=O)O)c(Oc3cccc(C(F)(F)F)c3)c3ccccc32)cc1

>  <IC50_nM>
115

>  <Assay Description>
Inhibitory concentration against human peroxisome proliferator activated receptor gamma in SPA assay

$$$$
CHEMBL3699383
Actelion Java MolfileCreator 2.0

  0  0  0  0  0  0              0 V3000
M  V30 BEGIN CTAB
M  V30 COUNTS 44 49 0 0 0
M  V30 BEGIN ATOM
M  V30 1 O 3.8424 1.554 0.0 0
M  V30 2 C 4.5855 0.8848 0.0 0
M  V30 3 O 5.5366 1.1939 0.0 0
M  V30 4 N 4.3776 -0.0932 0.0 0
M  V30 5 C 6.2797 0.5247 0.0 0
M  V30 6 C 3.4641 -0.5 0.0 0 CFG=2
M  V30 7 C 5.0467 -0.8364 0.0 0
M  V30 8 C 7.2308 0.8337 0.0 0
M  V30 9 C 2.598 0.0 0.0 0 CFG=1
M  V30 10 C 3.5686 -1.4945 0.0 0
M  V30 11 C 4.5467 -1.7024 0.0 0
M  V30 12 C 7.9739 0.1646 0.0 0
M  V30 13 C 7.4387 1.8119 0.0 0
M  V30 14 N 1.732 -0.5 0.0 0
M  V30 15 C 2.598 1.0 0.0 0
M  V30 16 C 8.925 0.4736 0.0 0
M  V30 17 C 8.3897 2.1209 0.0 0
M  V30 18 C 0.866 0.0 0.0 0
M  V30 19 C 9.1329 1.4518 0.0 0
M  V30 20 O 0.866 1.0 0.0 0
M  V30 21 C 0.0 -0.5 0.0 0
M  V30 22 C 0.0 -1.4999 0.0 0
M  V30 23 C -0.866 0.0 0.0 0
M  V30 24 C -0.866 -1.9999 0.0 0
M  V30 25 C -1.732 -0.4999 0.0 0
M  V30 26 C -1.732 -1.4999 0.0 0
M  V30 27 C -1.0739 -2.9781 0.0 0
M  V30 28 N -2.4751 -2.1691 0.0 0
M  V30 29 C -2.0684 -3.0826 0.0 0
M  V30 30 C -0.4048 -3.7212 0.0 0
M  V30 31 C -3.4533 -1.9612 0.0 0
M  V30 32 C -2.5684 -3.9487 0.0 0
M  V30 33 C -4.1224 -2.7043 0.0 0
M  V30 34 C -5.1006 -2.4964 0.0 0
M  V30 35 C -3.8134 -3.6554 0.0 0
M  V30 36 C -5.7697 -3.2395 0.0 0
M  V30 37 C -4.4825 -4.3985 0.0 0
M  V30 38 C -5.4607 -4.1906 0.0 0
M  V30 39 C -6.1298 -4.9337 0.0 0
M  V30 40 C -7.108 -4.7258 0.0 0
M  V30 41 C -5.8208 -5.8848 0.0 0
M  V30 42 C -7.7771 -5.469 0.0 0
M  V30 43 C -6.4899 -6.6279 0.0 0
M  V30 44 C -7.4681 -6.42 0.0 0
M  V30 END ATOM
M  V30 BEGIN BOND
M  V30 1 2 1 2
M  V30 2 1 2 3
M  V30 3 1 2 4
M  V30 4 1 3 5
M  V30 5 1 6 4 CFG=1
M  V30 6 1 4 7
M  V30 7 1 5 8
M  V30 8 1 6 9
M  V30 9 1 6 10
M  V30 10 1 7 11
M  V30 11 2 8 12
M  V30 12 1 8 13
M  V30 13 1 9 14
M  V30 14 1 9 15 CFG=1
M  V30 15 1 12 16
M  V30 16 2 13 17
M  V30 17 1 14 18
M  V30 18 2 16 19
M  V30 19 2 18 20
M  V30 20 1 18 21
M  V30 21 2 21 22
M  V30 22 1 21 23
M  V30 23 1 22 24
M  V30 24 2 23 25
M  V30 25 2 24 26
M  V30 26 1 24 27
M  V30 27 1 26 28
M  V30 28 2 27 29
M  V30 29 1 27 30
M  V30 30 1 28 31
M  V30 31 1 29 32
M  V30 32 1 31 33
M  V30 33 2 33 34
M  V30 34 1 33 35
M  V30 35 1 34 36
M  V30 36 2 35 37
M  V30 37 2 36 38
M  V30 38 1 38 39
M  V30 39 2 39 40
M  V30 40 1 39 41
M  V30 41 1 40 42
M  V30 42 2 41 43
M  V30 43 2 42 44
M  V30 44 1 10 11
M  V30 45 1 17 19
M  V30 46 1 25 26
M  V30 47 1 28 29
M  V30 48 1 37 38
M  V30 49 1 43 44
M  V30 END BOND
M  V30 BEGIN COLLECTION
M  V30 MDLV30/STEABS ATOMS=(2 6 9)
M  V30 END COLLECTION
M  V30 END CTAB
M  END
>  <Molecule ChEMBL ID>
CHEMBL3699383

>  <Smiles>
Cc1c(C)n(Cc2ccc(-c3ccccc3)cc2)c2ccc(C(=O)N[C@@H](C)[C@@H]3CCCN3C(=O)OCc3ccccc3)cc12

>  <IC50_nM>
118

>  <Assay Description>
Lanthascreen Competitive Binding Assay: The assay was performed according to manufacturer protocol. A mixture of nM GST-PPARG-LBD, 5 nM Tb-GST-antibody, 5 nM Fluormone Pan-PPAR Green, and serial dilutions of the experimental compound, beginning at 10 ׬M downwards, was added to wells of black 384-well low-volume plates (Greiner) to a total volume of 18 ׬L. All dilutions were made in TR-FRET assay buffer C. DMSO at 2% final concentration was used as a no-ligand control. Experiment was performed in triplicate, and incubated for 2 hours in the dark prior to assay read in Perkin Elmer ViewLux ultra HTS microplate reader. FRET signal was measured by excitation at 340 nm and emission at 520 nm for fluorescein and 490 nm for terbium. Fold change over DMSO was calculated using GraphPad Prism Software (La Jolla, Calif.) by calculating 520 nm/490 nm ratio. Graphs were plotted as fold change of FRET signal for compound treatment over DMSO-only control.

$$$$
CHEMBL197637
Actelion Java MolfileCreator 2.0

  0  0  0  0  0  0              0 V3000
M  V30 BEGIN CTAB
M  V30 COUNTS 32 35 0 0 0
M  V30 BEGIN ATOM
M  V30 1 F 4.8301 -1.1339 0.0 0
M  V30 2 C 4.3301 -1.9999 0.0 0
M  V30 3 F 5.1961 -2.5 0.0 0
M  V30 4 F 3.8301 -2.866 0.0 0
M  V30 5 C 3.4641 -1.4999 0.0 0
M  V30 6 C 3.4641 -0.5 0.0 0
M  V30 7 C 2.598 -1.9999 0.0 0
M  V30 8 C 2.598 0.0 0.0 0
M  V30 9 C 1.732 -1.5 0.0 0
M  V30 10 C 1.732 -0.5 0.0 0
M  V30 11 O 0.866 0.0 0.0 0
M  V30 12 C 0.0 -0.5 0.0 0
M  V30 13 C -0.9135 -0.0932 0.0 0
M  V30 14 C -0.1045 -1.4945 0.0 0
M  V30 15 N -1.5826 -0.8364 0.0 0
M  V30 16 C -1.1214 0.8848 0.0 0
M  V30 17 C -1.0826 -1.7024 0.0 0
M  V30 18 C 0.5646 -2.2376 0.0 0
M  V30 19 C -2.5771 -0.7318 0.0 0
M  V30 20 O -0.3783 1.554 0.0 0
M  V30 21 O -2.0725 1.1939 0.0 0
M  V30 22 C -1.3916 -2.6534 0.0 0
M  V30 23 C 0.2555 -3.1887 0.0 0
M  V30 24 C -2.9839 0.1816 0.0 0
M  V30 25 C -3.1649 -1.5408 0.0 0
M  V30 26 C -0.7225 -3.3966 0.0 0
M  V30 27 C -3.9784 0.2861 0.0 0
M  V30 28 C -4.1595 -1.4363 0.0 0
M  V30 29 C -4.5662 -0.5228 0.0 0
M  V30 30 C -4.3851 1.1997 0.0 0
M  V30 31 C -3.7974 2.0087 0.0 0
M  V30 32 C -5.3797 1.3042 0.0 0
M  V30 END ATOM
M  V30 BEGIN BOND
M  V30 1 1 1 2
M  V30 2 1 2 3
M  V30 3 1 2 4
M  V30 4 1 2 5
M  V30 5 2 5 6
M  V30 6 1 5 7
M  V30 7 1 6 8
M  V30 8 2 7 9
M  V30 9 2 8 10
M  V30 10 1 10 11
M  V30 11 1 11 12
M  V30 12 2 12 13
M  V30 13 1 12 14
M  V30 14 1 13 15
M  V30 15 1 13 16
M  V30 16 2 14 17
M  V30 17 1 14 18
M  V30 18 1 15 19
M  V30 19 2 16 20
M  V30 20 1 16 21
M  V30 21 1 17 22
M  V30 22 2 18 23
M  V30 23 2 19 24
M  V30 24 1 19 25
M  V30 25 2 22 26
M  V30 26 1 24 27
M  V30 27 2 25 28
M  V30 28 2 27 29
M  V30 29 1 27 30
M  V30 30 1 30 31
M  V30 31 1 30 32
M  V30 32 1 9 10
M  V30 33 1 15 17
M  V30 34 1 23 26
M  V30 35 1 28 29
M  V30 END BOND
M  V30 END CTAB
M  END
>  <Molecule ChEMBL ID>
CHEMBL197637

>  <Smiles>
CC(C)c1cccc(-n2c(C(=O)O)c(Oc3ccc(C(F)(F)F)cc3)c3ccccc32)c1

>  <IC50_nM>
120

>  <Assay Description>
Inhibitory concentration against human peroxisome proliferator activated receptor gamma in SPA assay

$$$$
CHEMBL364274
Actelion Java MolfileCreator 2.0

  0  0  0  0  0  0              0 V3000
M  V30 BEGIN CTAB
M  V30 COUNTS 34 37 0 0 0
M  V30 BEGIN ATOM
M  V30 1 O 7.7349 -0.9999 0.0 0
M  V30 2 C 6.7349 -0.9999 0.0 0
M  V30 3 O 6.1472 -0.1909 0.0 0
M  V30 4 N 6.1472 -1.809 0.0 0
M  V30 5 C 5.1961 -0.4999 0.0 0
M  V30 6 C 5.1961 -1.4999 0.0 0
M  V30 7 C 6.4562 -2.76 0.0 0
M  V30 8 C 4.3301 0.0 0.0 0
M  V30 9 C 4.3301 -2.0 0.0 0
M  V30 10 C 7.4343 -2.9679 0.0 0
M  V30 11 C 3.4641 -0.5 0.0 0
M  V30 12 C 4.4224 1.0977 0.0 0
M  V30 13 C 3.4641 -1.4999 0.0 0
M  V30 14 C 8.1775 -3.6371 0.0 0
M  V30 15 C 8.3854 -2.6589 0.0 0
M  V30 16 O 2.598 0.0 0.0 0
M  V30 17 C 5.1961 1.4999 0.0 0
M  V30 18 C 2.598 -1.9999 0.0 0
M  V30 19 C 2.598 1.0 0.0 0 CFG=1
M  V30 20 C 6.0621 1.0 0.0 0
M  V30 21 C 2.598 -2.9999 0.0 0
M  V30 22 C 1.732 1.4999 0.0 0
M  V30 23 C 3.4641 1.5 0.0 0
M  V30 24 C 1.732 -3.4999 0.0 0
M  V30 25 C 1.732 2.4999 0.0 0
M  V30 26 C 0.866 0.9999 0.0 0
M  V30 27 O 4.2408 0.7664 0.0 0
M  V30 28 O 3.4641 2.5 0.0 0
M  V30 29 C 0.866 3.0 0.0 0
M  V30 30 C 0.0 1.4999 0.0 0
M  V30 31 C 0.0 2.5 0.0 0
M  V30 32 C -0.866 2.9999 0.0 0
M  V30 33 C -0.866 4.0 0.0 0
M  V30 34 C -1.732 2.5 0.0 0
M  V30 END ATOM
M  V30 BEGIN BOND
M  V30 1 2 1 2
M  V30 2 1 2 3
M  V30 3 1 2 4
M  V30 4 1 3 5
M  V30 5 1 4 6
M  V30 6 1 4 7
M  V30 7 1 5 8
M  V30 8 1 6 9
M  V30 9 1 7 10
M  V30 10 2 8 11
M  V30 11 1 8 12
M  V30 12 2 9 13
M  V30 13 1 10 14
M  V30 14 1 10 15
M  V30 15 1 11 16
M  V30 16 1 12 17
M  V30 17 1 13 18
M  V30 18 1 19 16 CFG=1
M  V30 19 1 17 20
M  V30 20 1 18 21
M  V30 21 1 19 22
M  V30 22 1 19 23
M  V30 23 1 21 24
M  V30 24 2 22 25
M  V30 25 1 22 26
M  V30 26 2 23 27
M  V30 27 1 23 28
M  V30 28 1 25 29
M  V30 29 2 26 30
M  V30 30 2 29 31
M  V30 31 1 31 32
M  V30 32 1 32 33
M  V30 33 1 32 34
M  V30 34 2 5 6
M  V30 35 1 11 13
M  V30 36 1 14 15
M  V30 37 1 30 31
M  V30 END BOND
M  V30 BEGIN COLLECTION
M  V30 MDLV30/STEABS ATOMS=(1 19)
M  V30 END COLLECTION
M  V30 END CTAB
M  END
>  <Molecule ChEMBL ID>
CHEMBL364274

>  <Smiles>
CCCc1cc2c(oc(=O)n2CC2CC2)c(CCC)c1O[C@H](C(=O)O)c1ccc(C(C)C)cc1

>  <IC50_nM>
120

>  <Assay Description>
In vitro binding affinity for human PPAR gamma

$$$$
CHEMBL50143
Actelion Java MolfileCreator 2.0

  0  0  0  0  0  0              0 V3000
M  V30 BEGIN CTAB
M  V30 COUNTS 37 40 0 0 0
M  V30 BEGIN ATOM
M  V30 1 S 7.8987 -2.9945 0.0 0
M  V30 2 C 8.8769 -3.2024 0.0 0
M  V30 3 C 7.7942 -2.0 0.0 0 CFG=2
M  V30 4 O 9.2836 -4.1159 0.0 0
M  V30 5 N 9.3769 -2.3364 0.0 0
M  V30 6 C 6.9282 -1.5 0.0 0
M  V30 7 C 8.7077 -1.5932 0.0 0
M  V30 8 C 6.9282 -0.5 0.0 0
M  V30 9 C 6.0621 -2.0 0.0 0
M  V30 10 O 8.9156 -0.6151 0.0 0
M  V30 11 C 6.0621 0.0 0.0 0
M  V30 12 C 5.1961 -1.5 0.0 0
M  V30 13 C 5.1961 -0.5 0.0 0
M  V30 14 C 6.0621 0.9999 0.0 0
M  V30 15 O 4.3301 0.0 0.0 0
M  V30 16 C 6.9282 1.4999 0.0 0
M  V30 17 C 3.4641 -0.5 0.0 0
M  V30 18 C 6.9282 2.4999 0.0 0
M  V30 19 C 2.598 0.0 0.0 0
M  V30 20 C 1.732 -0.5 0.0 0
M  V30 21 O 0.866 0.0 0.0 0
M  V30 22 C 0.0 -0.5 0.0 0
M  V30 23 C -0.866 0.0 0.0 0
M  V30 24 C 0.0 -1.4999 0.0 0
M  V30 25 C -1.732 -0.4999 0.0 0
M  V30 26 C -0.866 1.0 0.0 0
M  V30 27 C -0.866 -1.9999 0.0 0
M  V30 28 C -1.732 -1.4999 0.0 0
M  V30 29 C 0.0 1.5 0.0 0
M  V30 30 O -2.598 -1.9999 0.0 0
M  V30 31 C 0.0 2.5 0.0 0
M  V30 32 C -2.598 -2.9999 0.0 0
M  V30 33 C -3.4641 -3.4999 0.0 0
M  V30 34 C -1.732 -3.4999 0.0 0
M  V30 35 C -3.4641 -4.4999 0.0 0
M  V30 36 C -1.732 -4.4999 0.0 0
M  V30 37 C -2.598 -4.9999 0.0 0
M  V30 END ATOM
M  V30 BEGIN BOND
M  V30 1 1 1 2
M  V30 2 1 1 3
M  V30 3 2 2 4
M  V30 4 1 2 5
M  V30 5 1 3 6 CFG=3
M  V30 6 1 3 7
M  V30 7 2 6 8
M  V30 8 1 6 9
M  V30 9 2 7 10
M  V30 10 1 8 11
M  V30 11 2 9 12
M  V30 12 2 11 13
M  V30 13 1 11 14
M  V30 14 1 13 15
M  V30 15 1 14 16
M  V30 16 1 15 17
M  V30 17 1 16 18
M  V30 18 1 17 19
M  V30 19 1 19 20
M  V30 20 1 20 21
M  V30 21 1 21 22
M  V30 22 2 22 23
M  V30 23 1 22 24
M  V30 24 1 23 25
M  V30 25 1 23 26
M  V30 26 2 24 27
M  V30 27 2 25 28
M  V30 28 1 26 29
M  V30 29 1 28 30
M  V30 30 1 29 31
M  V30 31 1 30 32
M  V30 32 2 32 33
M  V30 33 1 32 34
M  V30 34 1 33 35
M  V30 35 2 34 36
M  V30 36 2 35 37
M  V30 37 1 5 7
M  V30 38 1 12 13
M  V30 39 1 27 28
M  V30 40 1 36 37
M  V30 END BOND
M  V30 BEGIN COLLECTION
M  V30 MDLV30/STERAC1 ATOMS=(1 3)
M  V30 END COLLECTION
M  V30 END CTAB
M  END
>  <Molecule ChEMBL ID>
CHEMBL50143

>  <Smiles>
CCCc1cc(Oc2ccccc2)ccc1OCCCOc1ccc(C2SC(=O)NC2=O)cc1CCC

>  <IC50_nM>
120

>  <Assay Description>
In vitro binding affinity against human PPAR gamma (peroxisome proliferator-activated gamma receptor)

$$$$
CHEMBL198529
Actelion Java MolfileCreator 2.0

  0  0  0  0  0  0              0 V3000
M  V30 BEGIN CTAB
M  V30 COUNTS 36 40 0 0 0
M  V30 BEGIN ATOM
M  V30 1 O 10.2967 -2.4964 0.0 0
M  V30 2 C 9.3186 -2.7043 0.0 0
M  V30 3 O 9.0096 -3.6554 0.0 0
M  V30 4 C 8.6494 -1.9612 0.0 0
M  V30 5 N 7.6713 -2.1691 0.0 0
M  V30 6 C 6.9282 -1.4999 0.0 0
M  V30 7 C 7.2646 -3.0826 0.0 0
M  V30 8 C 6.0621 -2.0 0.0 0
M  V30 9 C 6.9282 -0.5 0.0 0
M  V30 10 C 6.27 -2.9781 0.0 0
M  V30 11 C 5.1961 -1.5 0.0 0
M  V30 12 C 6.0621 0.0 0.0 0
M  V30 13 C 5.1961 -0.5 0.0 0
M  V30 14 O 4.3301 0.0 0.0 0
M  V30 15 C 3.4641 -0.5 0.0 0
M  V30 16 C 2.598 0.0 0.0 0
M  V30 17 C 1.732 -0.5 0.0 0
M  V30 18 O 0.866 0.0 0.0 0
M  V30 19 C 0.0 -0.5 0.0 0
M  V30 20 C -0.866 0.0 0.0 0
M  V30 21 C 0.0 -1.5 0.0 0
M  V30 22 C -1.732 -0.4999 0.0 0
M  V30 23 C -0.866 1.0 0.0 0
M  V30 24 C -0.866 -1.9999 0.0 0
M  V30 25 O -2.6831 -0.1909 0.0 0
M  V30 26 C -1.732 -1.4999 0.0 0
M  V30 27 C 0.0 1.5 0.0 0
M  V30 28 N -3.2708 -0.9999 0.0 0
M  V30 29 C -2.6831 -1.809 0.0 0
M  V30 30 C 0.0 2.5 0.0 0
M  V30 31 C -2.9921 -2.76 0.0 0
M  V30 32 C -3.9702 -2.9679 0.0 0
M  V30 33 C -2.3229 -3.5032 0.0 0
M  V30 34 C -4.2792 -3.919 0.0 0
M  V30 35 C -2.632 -4.4542 0.0 0
M  V30 36 C -3.6101 -4.6621 0.0 0
M  V30 END ATOM
M  V30 BEGIN BOND
M  V30 1 2 1 2
M  V30 2 1 2 3
M  V30 3 1 2 4
M  V30 4 1 4 5
M  V30 5 1 5 6
M  V30 6 1 5 7
M  V30 7 2 6 8
M  V30 8 1 6 9
M  V30 9 2 7 10
M  V30 10 1 8 11
M  V30 11 2 9 12
M  V30 12 2 11 13
M  V30 13 1 13 14
M  V30 14 1 14 15
M  V30 15 1 15 16
M  V30 16 1 16 17
M  V30 17 1 17 18
M  V30 18 1 18 19
M  V30 19 2 19 20
M  V30 20 1 19 21
M  V30 21 1 20 22
M  V30 22 1 20 23
M  V30 23 2 21 24
M  V30 24 1 22 25
M  V30 25 2 22 26
M  V30 26 1 23 27
M  V30 27 1 25 28
M  V30 28 1 26 29
M  V30 29 1 27 30
M  V30 30 1 29 31
M  V30 31 2 31 32
M  V30 32 1 31 33
M  V30 33 1 32 34
M  V30 34 2 33 35
M  V30 35 2 34 36
M  V30 36 1 8 10
M  V30 37 1 12 13
M  V30 38 1 24 26
M  V30 39 2 28 29
M  V30 40 1 35 36
M  V30 END BOND
M  V30 END CTAB
M  END
>  <Molecule ChEMBL ID>
CHEMBL198529

>  <Smiles>
CCCc1c(OCCCOc2ccc3c(ccn3CC(=O)O)c2)ccc2c(-c3ccccc3)noc12

>  <IC50_nM>
120

>  <Assay Description>
Displacement of [3H]rosiglitazone from human PPAR gamma by SPA assay

$$$$
CHEMBL186179
Actelion Java MolfileCreator 2.0

  0  0  0  0  0  0              0 V3000
M  V30 BEGIN CTAB
M  V30 COUNTS 38 41 0 0 0
M  V30 BEGIN ATOM
M  V30 1 O 3.4641 -1.5 0.0 0
M  V30 2 C 3.4641 -0.5 0.0 0
M  V30 3 O 4.3301 0.0 0.0 0
M  V30 4 N 2.598 0.0 0.0 0
M  V30 5 C 5.1961 -0.5 0.0 0
M  V30 6 C 2.598 1.0 0.0 0
M  V30 7 C 1.732 -0.5 0.0 0
M  V30 8 C 5.1961 -1.5 0.0 0
M  V30 9 C 6.0621 0.0 0.0 0
M  V30 10 C 1.732 1.5 0.0 0
M  V30 11 C 1.732 -1.5 0.0 0
M  V30 12 C 6.0621 -2.0 0.0 0
M  V30 13 C 6.9282 -0.5 0.0 0
M  V30 14 C 1.732 2.5 0.0 0
M  V30 15 C 0.866 1.0 0.0 0
M  V30 16 O 2.598 -2.0 0.0 0
M  V30 17 O 0.866 -2.0 0.0 0
M  V30 18 C 6.9282 -1.5 0.0 0
M  V30 19 C 0.866 3.0 0.0 0
M  V30 20 C 0.0 1.5 0.0 0
M  V30 21 O 7.7942 -2.0 0.0 0
M  V30 22 C 0.0 2.5 0.0 0
M  V30 23 C 8.6602 -1.5 0.0 0
M  V30 24 O -0.866 3.0 0.0 0
M  V30 25 C -1.732 2.5 0.0 0
M  V30 26 C -2.598 3.0 0.0 0
M  V30 27 C -3.4641 2.5 0.0 0
M  V30 28 N -4.3776 2.9067 0.0 0
M  V30 29 C -3.5686 1.5054 0.0 0
M  V30 30 C -5.0467 2.1635 0.0 0
M  V30 31 O -4.5467 1.2975 0.0 0
M  V30 32 C -2.8254 0.8363 0.0 0
M  V30 33 C -6.0412 2.2681 0.0 0
M  V30 34 C -6.448 3.1816 0.0 0
M  V30 35 C -6.629 1.4591 0.0 0
M  V30 36 C -7.4425 3.2861 0.0 0
M  V30 37 C -7.6236 1.5636 0.0 0
M  V30 38 C -8.0303 2.4771 0.0 0
M  V30 END ATOM
M  V30 BEGIN BOND
M  V30 1 2 1 2
M  V30 2 1 2 3
M  V30 3 1 2 4
M  V30 4 1 3 5
M  V30 5 1 4 6
M  V30 6 1 4 7
M  V30 7 2 5 8
M  V30 8 1 5 9
M  V30 9 1 6 10
M  V30 10 1 7 11
M  V30 11 1 8 12
M  V30 12 2 9 13
M  V30 13 2 10 14
M  V30 14 1 10 15
M  V30 15 2 11 16
M  V30 16 1 11 17
M  V30 17 2 12 18
M  V30 18 1 14 19
M  V30 19 2 15 20
M  V30 20 1 18 21
M  V30 21 2 19 22
M  V30 22 1 21 23
M  V30 23 1 22 24
M  V30 24 1 24 25
M  V30 25 1 25 26
M  V30 26 1 26 27
M  V30 27 1 27 28
M  V30 28 2 27 29
M  V30 29 2 28 30
M  V30 30 1 29 31
M  V30 31 1 29 32
M  V30 32 1 30 33
M  V30 33 2 33 34
M  V30 34 1 33 35
M  V30 35 1 34 36
M  V30 36 2 35 37
M  V30 37 2 36 38
M  V30 38 1 13 18
M  V30 39 1 20 22
M  V30 40 1 30 31
M  V30 41 1 37 38
M  V30 END BOND
M  V30 END CTAB
M  END
>  <Molecule ChEMBL ID>
CHEMBL186179

>  <Smiles>
COc1ccc(OC(=O)N(CC(=O)O)Cc2ccc(OCCc3nc(-c4ccccc4)oc3C)cc2)cc1

>  <IC50_nM>
120

>  <Assay Description>
Competitive displacement of fluorescently labelled PPAR tracer ligand from GST-tagged human PPARgamma ligand binding domain after 1 hr in dark by TR-FRET competitive binding assay

$$$$
CHEMBL3678145
Actelion Java MolfileCreator 2.0

  0  0  0  0  0  0              0 V3000
M  V30 BEGIN CTAB
M  V30 COUNTS 37 41 0 0 0
M  V30 BEGIN ATOM
M  V30 1 O 5.1961 -0.75 0.0 0
M  V30 2 C 3.8971 0.0 0.0 0
M  V30 3 N 2.598 -0.75 0.0 0
M  V30 4 C 3.8971 1.5 0.0 0
M  V30 5 C 1.299 0.0 0.0 0 CFG=2
M  V30 6 C 2.598 2.25 0.0 0
M  V30 7 C 5.1961 2.25 0.0 0
M  V30 8 C 0.0 -0.75 0.0 0
M  V30 9 C 1.299 1.5 0.0 0
M  V30 10 C 2.598 3.75 0.0 0
M  V30 11 C 5.1961 3.75 0.0 0
M  V30 12 C 0.0 -2.25 0.0 0
M  V30 13 C -1.299 0.0 0.0 0
M  V30 14 C 3.8971 4.5 0.0 0
M  V30 15 C 1.4833 4.7537 0.0 0
M  V30 16 C -1.299 -3.0 0.0 0
M  V30 17 C -2.598 -0.75 0.0 0
M  V30 18 N 3.5852 5.9672 0.0 0
M  V30 19 C 2.0934 6.124 0.0 0
M  V30 20 C 0.0161 4.4418 0.0 0
M  V30 21 C -2.598 -2.25 0.0 0
M  V30 22 C -1.299 -4.5 0.0 0
M  V30 23 C 4.5889 7.0819 0.0 0
M  V30 24 C 1.3434 7.423 0.0 0
M  V30 25 C -0.549 -5.799 0.0 0
M  V30 26 C -2.049 -5.799 0.0 0
M  V30 27 C 4.1254 8.5085 0.0 0
M  V30 28 C 5.1291 9.6232 0.0 0
M  V30 29 C 2.6581 8.8204 0.0 0
M  V30 30 C 4.6655 11.0498 0.0 0
M  V30 31 C 2.1946 10.2469 0.0 0
M  V30 32 C 3.1983 11.3617 0.0 0
M  V30 33 C 5.6692 12.1645 0.0 0
M  V30 34 C 4.3327 12.8455 0.0 0
M  V30 35 C 6.4862 10.9065 0.0 0
M  V30 36 C 7.1672 12.243 0.0 0
M  V30 37 N 2.9962 13.5265 0.0 0
M  V30 END ATOM
M  V30 BEGIN BOND
M  V30 1 2 1 2
M  V30 2 1 2 3
M  V30 3 1 2 4
M  V30 4 1 3 5
M  V30 5 2 4 6
M  V30 6 1 4 7
M  V30 7 1 5 8
M  V30 8 1 5 9 CFG=3
M  V30 9 1 6 10
M  V30 10 2 7 11
M  V30 11 2 8 12
M  V30 12 1 8 13
M  V30 13 2 10 14
M  V30 14 1 10 15
M  V30 15 1 12 16
M  V30 16 2 13 17
M  V30 17 1 14 18
M  V30 18 2 15 19
M  V30 19 1 15 20
M  V30 20 2 16 21
M  V30 21 1 16 22
M  V30 22 1 18 23
M  V30 23 1 19 24
M  V30 24 1 22 25
M  V30 25 1 22 26
M  V30 26 1 23 27
M  V30 27 2 27 28
M  V30 28 1 27 29
M  V30 29 1 28 30
M  V30 30 2 29 31
M  V30 31 2 30 32
M  V30 32 1 30 33
M  V30 33 1 33 34
M  V30 34 1 33 35
M  V30 35 1 33 36
M  V30 36 3 34 37
M  V30 37 1 11 14
M  V30 38 1 17 21
M  V30 39 1 18 19
M  V30 40 1 25 26
M  V30 41 1 31 32
M  V30 END BOND
M  V30 BEGIN COLLECTION
M  V30 MDLV30/STEABS ATOMS=(1 5)
M  V30 END COLLECTION
M  V30 END CTAB
M  END
>  <Molecule ChEMBL ID>
CHEMBL3678145

>  <Smiles>
Cc1c(C)n(Cc2cccc(C(C)(C)C#N)c2)c2ccc(C(=O)N[C@@H](C)c3cccc(C4CC4)c3)cc12

>  <IC50_nM>
120

>  <Assay Description>
Lanthascreen Competitive Binding Assay: The assay was performed according to manufacturer protocol. A mixture of 5 nM GST-PPARG-LBD, 5 nM Tb-GST-antibody, 5 nM Fluormone Pan- PPAR Green, and serial dilutions of the experimental compound, beginning at 10 ׬� downwards, was added to wells of black 384-well low- volume plates (Greiner) to a total volume of 18 xL. All dilutions were made in TR-FRET assay buffer C. DMSO at 2% final concentration was used as a no-ligand control. Experiment was performed in triplicate, and incubated for 2 hours in the dark prior to assay read in Perkin Elmer ViewLux ultra HTS microplate reader. FRET signal was measured by excitation at 340 nm and emission at 520 nm for fluorescein and 490 nm for terbium.

$$$$
CHEMBL3678109
Actelion Java MolfileCreator 2.0

  0  0  0  0  0  0              0 V3000
M  V30 BEGIN CTAB
M  V30 COUNTS 37 40 0 0 0
M  V30 BEGIN ATOM
M  V30 1 O 9.8567 -5.6093 0.0 0
M  V30 2 C 8.8785 -5.8172 0.0 0
M  V30 3 N 8.5695 -6.7682 0.0 0
M  V30 4 C 8.2094 -5.074 0.0 0
M  V30 5 C 7.5914 -6.9761 0.0 0 CFG=2
M  V30 6 C 7.2313 -5.2819 0.0 0
M  V30 7 C 8.5184 -4.123 0.0 0
M  V30 8 C 7.2824 -7.9272 0.0 0
M  V30 9 C 6.9222 -6.233 0.0 0
M  V30 10 C 6.5621 -4.5388 0.0 0
M  V30 11 C 7.8493 -3.3798 0.0 0
M  V30 12 C 7.9515 -8.6703 0.0 0
M  V30 13 C 6.3042 -8.1351 0.0 0
M  V30 14 C 6.8711 -3.5877 0.0 0
M  V30 15 C 5.5621 -4.5388 0.0 0
M  V30 16 C 7.6425 -9.6214 0.0 0
M  V30 17 C 5.9952 -9.0862 0.0 0
M  V30 18 N 6.0621 -3.0 0.0 0
M  V30 19 C 5.2531 -3.5877 0.0 0
M  V30 20 C 4.9743 -5.3478 0.0 0
M  V30 21 C 6.6643 -9.8293 0.0 0
M  V30 22 C 8.3116 -10.3645 0.0 0
M  V30 23 C 6.0621 -1.9999 0.0 0
M  V30 24 C 4.3021 -3.2787 0.0 0
M  V30 25 C 9.2897 -10.1566 0.0 0
M  V30 26 C 8.0026 -11.3156 0.0 0
M  V30 27 C 5.1961 -1.4999 0.0 0
M  V30 28 C 5.1961 -0.5 0.0 0
M  V30 29 C 4.3301 -1.9999 0.0 0
M  V30 30 C 4.3301 0.0 0.0 0
M  V30 31 C 3.4641 -1.5 0.0 0
M  V30 32 C 3.4641 -0.5 0.0 0
M  V30 33 O 2.598 0.0 0.0 0
M  V30 34 C 1.732 -0.5 0.0 0
M  V30 35 C 0.866 0.0 0.0 0
M  V30 36 O 0.866 1.0 0.0 0
M  V30 37 O 0.0 -0.5 0.0 0
M  V30 END ATOM
M  V30 BEGIN BOND
M  V30 1 2 1 2
M  V30 2 1 2 3
M  V30 3 1 2 4
M  V30 4 1 3 5
M  V30 5 2 4 6
M  V30 6 1 4 7
M  V30 7 1 5 8
M  V30 8 1 5 9 CFG=3
M  V30 9 1 6 10
M  V30 10 2 7 11
M  V30 11 2 8 12
M  V30 12 1 8 13
M  V30 13 2 10 14
M  V30 14 1 10 15
M  V30 15 1 12 16
M  V30 16 2 13 17
M  V30 17 1 14 18
M  V30 18 2 15 19
M  V30 19 1 15 20
M  V30 20 2 16 21
M  V30 21 1 16 22
M  V30 22 1 18 23
M  V30 23 1 19 24
M  V30 24 1 22 25
M  V30 25 1 22 26
M  V30 26 1 23 27
M  V30 27 2 27 28
M  V30 28 1 27 29
M  V30 29 1 28 30
M  V30 30 2 29 31
M  V30 31 2 30 32
M  V30 32 1 32 33
M  V30 33 1 33 34
M  V30 34 1 34 35
M  V30 35 2 35 36
M  V30 36 1 35 37
M  V30 37 1 11 14
M  V30 38 1 17 21
M  V30 39 1 18 19
M  V30 40 1 31 32
M  V30 END BOND
M  V30 BEGIN COLLECTION
M  V30 MDLV30/STEABS ATOMS=(1 5)
M  V30 END COLLECTION
M  V30 END CTAB
M  END
>  <Molecule ChEMBL ID>
CHEMBL3678109

>  <Smiles>
Cc1c(C)n(Cc2ccc(OCC(=O)O)cc2)c2ccc(C(=O)N[C@@H](C)c3cccc(C(C)C)c3)cc12

>  <IC50_nM>
124

>  <Assay Description>
Lanthascreen Competitive Binding Assay: The assay was performed according to manufacturer protocol. A mixture of 5 nM GST-PPARG-LBD, 5 nM Tb-GST-antibody, 5 nM Fluormone Pan- PPAR Green, and serial dilutions of the experimental compound, beginning at 10 ׬� downwards, was added to wells of black 384-well low- volume plates (Greiner) to a total volume of 18 xL. All dilutions were made in TR-FRET assay buffer C. DMSO at 2% final concentration was used as a no-ligand control. Experiment was performed in triplicate, and incubated for 2 hours in the dark prior to assay read in Perkin Elmer ViewLux ultra HTS microplate reader. FRET signal was measured by excitation at 340 nm and emission at 520 nm for fluorescein and 490 nm for terbium.

$$$$
CHEMBL3695781
Actelion Java MolfileCreator 2.0

  0  0  0  0  0  0              0 V3000
M  V30 BEGIN CTAB
M  V30 COUNTS 41 45 0 0 0
M  V30 BEGIN ATOM
M  V30 1 O 11.8592 -3.5669 0.0 0
M  V30 2 C 10.8811 -3.7748 0.0 0
M  V30 3 O 10.212 -3.0316 0.0 0
M  V30 4 C 10.5721 -4.7258 0.0 0
M  V30 5 C 9.5939 -4.9337 0.0 0
M  V30 6 C 11.2412 -5.469 0.0 0
M  V30 7 C 8.9248 -4.1906 0.0 0
M  V30 8 C 9.2849 -5.8848 0.0 0
M  V30 9 C 10.9322 -6.42 0.0 0
M  V30 10 C 9.2338 -3.2395 0.0 0
M  V30 11 C 7.9466 -4.3985 0.0 0
M  V30 12 C 9.954 -6.6279 0.0 0
M  V30 13 C 8.5647 -2.4964 0.0 0
M  V30 14 C 7.2775 -3.6554 0.0 0
M  V30 15 C 7.5865 -2.7043 0.0 0
M  V30 16 C 6.9174 -1.9612 0.0 0
M  V30 17 N 5.9392 -2.1691 0.0 0
M  V30 18 C 5.1961 -1.4999 0.0 0
M  V30 19 C 5.5325 -3.0826 0.0 0
M  V30 20 C 4.3301 -1.9999 0.0 0
M  V30 21 C 5.1961 -0.4999 0.0 0
M  V30 22 C 4.538 -2.9781 0.0 0
M  V30 23 C 6.0325 -3.9487 0.0 0
M  V30 24 C 3.4641 -1.5 0.0 0
M  V30 25 C 4.3301 0.0 0.0 0
M  V30 26 C 3.8689 -3.7212 0.0 0
M  V30 27 C 3.4641 -0.5 0.0 0
M  V30 28 C 2.598 0.0 0.0 0
M  V30 29 O 2.598 1.0 0.0 0
M  V30 30 N 1.732 -0.5 0.0 0
M  V30 31 C 0.866 0.0 0.0 0
M  V30 32 C 0.0 -0.5 0.0 0
M  V30 33 C -0.866 0.0 0.0 0
M  V30 34 C 0.0 -1.4999 0.0 0
M  V30 35 C -1.732 -0.4999 0.0 0
M  V30 36 C -0.866 -1.9999 0.0 0
M  V30 37 O -2.598 0.0 0.0 0
M  V30 38 C -1.732 -1.4999 0.0 0
M  V30 39 C -3.4641 -0.4999 0.0 0
M  V30 40 O -2.598 -1.9999 0.0 0
M  V30 41 C -2.598 -2.9999 0.0 0
M  V30 END ATOM
M  V30 BEGIN BOND
M  V30 1 2 1 2
M  V30 2 1 2 3
M  V30 3 1 2 4
M  V30 4 2 4 5
M  V30 5 1 4 6
M  V30 6 1 5 7
M  V30 7 1 5 8
M  V30 8 2 6 9
M  V30 9 2 7 10
M  V30 10 1 7 11
M  V30 11 2 8 12
M  V30 12 1 10 13
M  V30 13 2 11 14
M  V30 14 2 13 15
M  V30 15 1 15 16
M  V30 16 1 16 17
M  V30 17 1 17 18
M  V30 18 1 17 19
M  V30 19 2 18 20
M  V30 20 1 18 21
M  V30 21 2 19 22
M  V30 22 1 19 23
M  V30 23 1 20 24
M  V30 24 2 21 25
M  V30 25 1 22 26
M  V30 26 2 24 27
M  V30 27 1 27 28
M  V30 28 2 28 29
M  V30 29 1 28 30
M  V30 30 1 30 31
M  V30 31 1 31 32
M  V30 32 2 32 33
M  V30 33 1 32 34
M  V30 34 1 33 35
M  V30 35 2 34 36
M  V30 36 1 35 37
M  V30 37 2 35 38
M  V30 38 1 37 39
M  V30 39 1 38 40
M  V30 40 1 40 41
M  V30 41 1 9 12
M  V30 42 1 14 15
M  V30 43 1 20 22
M  V30 44 1 25 27
M  V30 45 1 36 38
M  V30 END BOND
M  V30 END CTAB
M  END
>  <Molecule ChEMBL ID>
CHEMBL3695781

>  <Smiles>
COc1ccc(CNC(=O)c2ccc3c(c2)c(C)c(C)n3Cc2ccc(-c3ccccc3C(=O)O)cc2)cc1OC

>  <IC50_nM>
125

>  <Assay Description>
Lanthascreen Competitive Binding Assay: The assay was performed according to manufacturer protocol. A mixture of nM GST-PPARG-LBD, 5 nM Tb-GST-antibody, 5 nM Fluormone Pan-PPAR Green, and serial dilutions of the experimental compound, beginning at 10 ׬M downwards, was added to wells of black 384-well low-volume plates (Greiner) to a total volume of 18 ׬L. All dilutions were made in TR-FRET assay buffer C. DMSO at 2% final concentration was used as a no-ligand control. Experiment was performed in triplicate, and incubated for 2 hours in the dark prior to assay read in Perkin Elmer ViewLux ultra HTS microplate reader. FRET signal was measured by excitation at 340 nm and emission at 520 nm for fluorescein and 490 nm for terbium. Fold change over DMSO was calculated using GraphPad Prism Software (La Jolla, Calif.) by calculating 520 nm/490 nm ratio. Graphs were plotted as fold change of FRET signal for compound treatment over DMSO-only control.

$$$$
CHEMBL237730
Actelion Java MolfileCreator 2.0

  0  0  0  0  0  0              0 V3000
M  V30 BEGIN CTAB
M  V30 COUNTS 34 36 0 0 0
M  V30 BEGIN ATOM
M  V30 1 F 9.8432 -1.7009 0.0 0
M  V30 2 C 9.0932 -3.0 0.0 0
M  V30 3 F 10.3923 -3.75 0.0 0
M  V30 4 F 8.3432 -4.299 0.0 0
M  V30 5 C 7.7942 -2.25 0.0 0
M  V30 6 C 7.7942 -0.75 0.0 0
M  V30 7 C 6.4951 -2.9999 0.0 0
M  V30 8 C 6.4951 0.0 0.0 0
M  V30 9 C 5.1961 -2.25 0.0 0
M  V30 10 C 5.1961 -0.75 0.0 0
M  V30 11 C 6.4951 1.5 0.0 0
M  V30 12 C 3.8971 0.0 0.0 0
M  V30 13 O 3.8971 1.5 0.0 0
M  V30 14 N 2.598 -0.75 0.0 0
M  V30 15 C 1.299 0.0 0.0 0
M  V30 16 C 0.0 -0.75 0.0 0
M  V30 17 C -1.299 0.0 0.0 0
M  V30 18 C 0.0 -2.25 0.0 0
M  V30 19 C -2.598 -0.7499 0.0 0
M  V30 20 C -1.299 -2.9999 0.0 0
M  V30 21 O -3.8971 0.0 0.0 0
M  V30 22 C -2.598 -2.2499 0.0 0
M  V30 23 C -5.1961 -0.7499 0.0 0
M  V30 24 C -6.4951 0.0 0.0 0
M  V30 25 C -5.1961 -2.2499 0.0 0
M  V30 26 C -7.7942 -0.7499 0.0 0
M  V30 27 C -6.4951 -2.9999 0.0 0
M  V30 28 C -7.7942 -2.2499 0.0 0
M  V30 29 C -9.0932 0.0 0.0 0
M  V30 30 C -9.0932 -2.9999 0.0 0
M  V30 31 C -9.0932 -4.4999 0.0 0
M  V30 32 C -10.3923 -5.2499 0.0 0
M  V30 33 O -11.6913 -4.4999 0.0 0
M  V30 34 O -10.3923 -6.7499 0.0 0
M  V30 END ATOM
M  V30 BEGIN BOND
M  V30 1 1 1 2
M  V30 2 1 2 3
M  V30 3 1 2 4
M  V30 4 1 2 5
M  V30 5 2 5 6
M  V30 6 1 5 7
M  V30 7 1 6 8
M  V30 8 2 7 9
M  V30 9 2 8 10
M  V30 10 1 8 11
M  V30 11 1 10 12
M  V30 12 2 12 13
M  V30 13 1 12 14
M  V30 14 1 14 15
M  V30 15 1 15 16
M  V30 16 2 16 17
M  V30 17 1 16 18
M  V30 18 1 17 19
M  V30 19 2 18 20
M  V30 20 1 19 21
M  V30 21 2 19 22
M  V30 22 1 21 23
M  V30 23 2 23 24
M  V30 24 1 23 25
M  V30 25 1 24 26
M  V30 26 2 25 27
M  V30 27 2 26 28
M  V30 28 1 26 29
M  V30 29 1 28 30
M  V30 30 1 30 31
M  V30 31 1 31 32
M  V30 32 2 32 33
M  V30 33 1 32 34
M  V30 34 1 9 10
M  V30 35 1 20 22
M  V30 36 1 27 28
M  V30 END BOND
M  V30 END CTAB
M  END
>  <Molecule ChEMBL ID>
CHEMBL237730

>  <Smiles>
Cc1cc(Oc2cccc(CNC(=O)c3ccc(C(F)(F)F)cc3C)c2)ccc1CCC(=O)O

>  <IC50_nM>
126

>  <Assay Description>
Displacement of [3H]2-methyl-2-(4-{3-{propyl-(5-pyridin-2-yl-thiophene-2-sulfonyl)-amino}-propyl}-phenoxy)-propionic acid from human PPARgamma

$$$$
CHEMBL3678108
Actelion Java MolfileCreator 2.0

  0  0  0  0  0  0              0 V3000
M  V30 BEGIN CTAB
M  V30 COUNTS 37 41 0 0 0
M  V30 BEGIN ATOM
M  V30 1 O 14.7851 -8.4139 0.0 0
M  V30 2 C 13.3178 -8.7258 0.0 0
M  V30 3 N 12.8543 -10.1524 0.0 0
M  V30 4 C 12.3141 -7.6111 0.0 0
M  V30 5 C 11.3871 -10.4642 0.0 0 CFG=2
M  V30 6 C 10.8469 -7.9229 0.0 0
M  V30 7 C 12.7777 -6.1845 0.0 0
M  V30 8 C 10.9236 -11.8908 0.0 0
M  V30 9 C 10.3834 -9.3495 0.0 0
M  V30 10 C 9.8432 -6.8082 0.0 0
M  V30 11 C 11.774 -5.0698 0.0 0
M  V30 12 C 11.9273 -13.0055 0.0 0
M  V30 13 C 9.4563 -12.2027 0.0 0
M  V30 14 C 10.3067 -5.3816 0.0 0
M  V30 15 C 8.3432 -6.8082 0.0 0
M  V30 16 C 11.4637 -14.4321 0.0 0
M  V30 17 C 8.9928 -13.6293 0.0 0
M  V30 18 N 9.0932 -4.5 0.0 0
M  V30 19 C 7.8797 -5.3816 0.0 0
M  V30 20 C 7.4615 -8.0217 0.0 0
M  V30 21 C 9.9965 -14.744 0.0 0
M  V30 22 C 12.4674 -15.5468 0.0 0
M  V30 23 C 9.0932 -3.0 0.0 0
M  V30 24 C 6.4531 -4.9181 0.0 0
M  V30 25 C 13.894 -16.0104 0.0 0
M  V30 26 C 12.7793 -17.0141 0.0 0
M  V30 27 C 7.7942 -2.25 0.0 0
M  V30 28 C 7.7942 -0.75 0.0 0
M  V30 29 C 6.4951 -2.9999 0.0 0
M  V30 30 C 6.4951 0.0 0.0 0
M  V30 31 C 5.1961 -2.25 0.0 0
M  V30 32 C 5.1961 -0.75 0.0 0
M  V30 33 O 3.8971 0.0 0.0 0
M  V30 34 C 2.598 -0.75 0.0 0
M  V30 35 C 1.299 0.0 0.0 0
M  V30 36 O 1.299 1.5 0.0 0
M  V30 37 O 0.0 -0.75 0.0 0
M  V30 END ATOM
M  V30 BEGIN BOND
M  V30 1 2 1 2
M  V30 2 1 2 3
M  V30 3 1 2 4
M  V30 4 1 3 5
M  V30 5 2 4 6
M  V30 6 1 4 7
M  V30 7 1 5 8
M  V30 8 1 5 9 CFG=3
M  V30 9 1 6 10
M  V30 10 2 7 11
M  V30 11 2 8 12
M  V30 12 1 8 13
M  V30 13 2 10 14
M  V30 14 1 10 15
M  V30 15 1 12 16
M  V30 16 2 13 17
M  V30 17 1 14 18
M  V30 18 2 15 19
M  V30 19 1 15 20
M  V30 20 2 16 21
M  V30 21 1 16 22
M  V30 22 1 18 23
M  V30 23 1 19 24
M  V30 24 1 22 25
M  V30 25 1 22 26
M  V30 26 1 23 27
M  V30 27 2 27 28
M  V30 28 1 27 29
M  V30 29 1 28 30
M  V30 30 2 29 31
M  V30 31 2 30 32
M  V30 32 1 32 33
M  V30 33 1 33 34
M  V30 34 1 34 35
M  V30 35 2 35 36
M  V30 36 1 35 37
M  V30 37 1 11 14
M  V30 38 1 17 21
M  V30 39 1 18 19
M  V30 40 1 25 26
M  V30 41 1 31 32
M  V30 END BOND
M  V30 BEGIN COLLECTION
M  V30 MDLV30/STEABS ATOMS=(1 5)
M  V30 END COLLECTION
M  V30 END CTAB
M  END
>  <Molecule ChEMBL ID>
CHEMBL3678108

>  <Smiles>
Cc1c(C)n(Cc2ccc(OCC(=O)O)cc2)c2ccc(C(=O)N[C@@H](C)c3cccc(C4CC4)c3)cc12

>  <IC50_nM>
126

>  <Assay Description>
Lanthascreen Competitive Binding Assay: The assay was performed according to manufacturer protocol. A mixture of 5 nM GST-PPARG-LBD, 5 nM Tb-GST-antibody, 5 nM Fluormone Pan- PPAR Green, and serial dilutions of the experimental compound, beginning at 10 ׬� downwards, was added to wells of black 384-well low- volume plates (Greiner) to a total volume of 18 xL. All dilutions were made in TR-FRET assay buffer C. DMSO at 2% final concentration was used as a no-ligand control. Experiment was performed in triplicate, and incubated for 2 hours in the dark prior to assay read in Perkin Elmer ViewLux ultra HTS microplate reader. FRET signal was measured by excitation at 340 nm and emission at 520 nm for fluorescein and 490 nm for terbium.

$$$$
CHEMBL3695858
Actelion Java MolfileCreator 2.0

  0  0  0  0  0  0              0 V3000
M  V30 BEGIN CTAB
M  V30 COUNTS 40 44 0 0 0
M  V30 BEGIN ATOM
M  V30 1 O 9.0932 -4.5 0.0 0
M  V30 2 N 9.0932 -3.0 0.0 0 CHG=1
M  V30 3 O 10.3923 -2.25 0.0 0 CHG=-1
M  V30 4 C 7.7942 -2.2499 0.0 0
M  V30 5 C 7.7942 -0.75 0.0 0
M  V30 6 C 6.4951 -2.9999 0.0 0
M  V30 7 C 6.4951 0.0 0.0 0
M  V30 8 C 5.1961 -2.25 0.0 0
M  V30 9 C 5.1961 -0.75 0.0 0
M  V30 10 C 3.8971 0.0 0.0 0 CFG=1
M  V30 11 N 2.598 -0.75 0.0 0
M  V30 12 C 3.8971 1.5 0.0 0
M  V30 13 C 1.299 0.0 0.0 0
M  V30 14 O 1.299 1.5 0.0 0
M  V30 15 C 0.0 -0.75 0.0 0
M  V30 16 C 0.0 -2.2499 0.0 0
M  V30 17 C -1.299 0.0 0.0 0
M  V30 18 C -1.299 -2.9999 0.0 0
M  V30 19 C -2.598 -0.7499 0.0 0
M  V30 20 C -2.598 -2.2499 0.0 0
M  V30 21 C -1.6109 -4.4672 0.0 0
M  V30 22 N -3.7127 -3.2536 0.0 0
M  V30 23 C -3.1026 -4.624 0.0 0
M  V30 24 C -0.6072 -5.5819 0.0 0
M  V30 25 C -5.18 -2.9418 0.0 0
M  V30 26 C -6.1837 -4.0565 0.0 0
M  V30 27 C -7.6509 -3.7446 0.0 0
M  V30 28 C -5.7201 -5.4831 0.0 0
M  V30 29 C -8.6546 -4.8593 0.0 0
M  V30 30 C -6.7238 -6.5978 0.0 0
M  V30 31 C -8.1911 -6.2859 0.0 0
M  V30 32 C -9.1947 -7.4006 0.0 0
M  V30 33 C -10.662 -7.0888 0.0 0
M  V30 34 C -8.7312 -8.8272 0.0 0
M  V30 35 C -11.1255 -5.6622 0.0 0
M  V30 36 C -11.6657 -8.2035 0.0 0
M  V30 37 C -9.7349 -9.9419 0.0 0
M  V30 38 O -10.1218 -4.5475 0.0 0
M  V30 39 O -12.5927 -5.3503 0.0 0
M  V30 40 C -11.2021 -9.6301 0.0 0
M  V30 END ATOM
M  V30 BEGIN BOND
M  V30 1 2 1 2
M  V30 2 1 2 3
M  V30 3 1 2 4
M  V30 4 2 4 5
M  V30 5 1 4 6
M  V30 6 1 5 7
M  V30 7 2 6 8
M  V30 8 2 7 9
M  V30 9 1 9 10
M  V30 10 1 10 11
M  V30 11 1 10 12 CFG=1
M  V30 12 1 11 13
M  V30 13 2 13 14
M  V30 14 1 13 15
M  V30 15 2 15 16
M  V30 16 1 15 17
M  V30 17 1 16 18
M  V30 18 2 17 19
M  V30 19 2 18 20
M  V30 20 1 18 21
M  V30 21 1 20 22
M  V30 22 2 21 23
M  V30 23 1 21 24
M  V30 24 1 22 25
M  V30 25 1 25 26
M  V30 26 2 26 27
M  V30 27 1 26 28
M  V30 28 1 27 29
M  V30 29 2 28 30
M  V30 30 2 29 31
M  V30 31 1 31 32
M  V30 32 2 32 33
M  V30 33 1 32 34
M  V30 34 1 33 35
M  V30 35 1 33 36
M  V30 36 2 34 37
M  V30 37 2 35 38
M  V30 38 1 35 39
M  V30 39 2 36 40
M  V30 40 1 8 9
M  V30 41 1 19 20
M  V30 42 1 22 23
M  V30 43 1 30 31
M  V30 44 1 37 40
M  V30 END BOND
M  V30 BEGIN COLLECTION
M  V30 MDLV30/STEABS ATOMS=(1 10)
M  V30 END COLLECTION
M  V30 END CTAB
M  END
>  <Molecule ChEMBL ID>
CHEMBL3695858

>  <Smiles>
Cc1cn(Cc2ccc(-c3ccccc3C(=O)O)cc2)c2ccc(C(=O)N[C@@H](C)c3ccc([N+](=O)[O-])cc3)cc12

>  <IC50_nM>
126

>  <Assay Description>
Lanthascreen Competitive Binding Assay: The assay was performed according to manufacturer protocol. A mixture of nM GST-PPARG-LBD, 5 nM Tb-GST-antibody, 5 nM Fluormone Pan-PPAR Green, and serial dilutions of the experimental compound, beginning at 10 ׬M downwards, was added to wells of black 384-well low-volume plates (Greiner) to a total volume of 18 ׬L. All dilutions were made in TR-FRET assay buffer C. DMSO at 2% final concentration was used as a no-ligand control. Experiment was performed in triplicate, and incubated for 2 hours in the dark prior to assay read in Perkin Elmer ViewLux ultra HTS microplate reader. FRET signal was measured by excitation at 340 nm and emission at 520 nm for fluorescein and 490 nm for terbium. Fold change over DMSO was calculated using GraphPad Prism Software (La Jolla, Calif.) by calculating 520 nm/490 nm ratio. Graphs were plotted as fold change of FRET signal for compound treatment over DMSO-only control.

$$$$
CHEMBL197496
Actelion Java MolfileCreator 2.0

  0  0  0  0  0  0              0 V3000
M  V30 BEGIN CTAB
M  V30 COUNTS 36 40 0 0 0
M  V30 BEGIN ATOM
M  V30 1 O 6.8835 -5.4154 0.0 0
M  V30 2 C 6.2143 -4.6723 0.0 0
M  V30 3 O 5.2362 -4.8802 0.0 0
M  V30 4 C 6.5233 -3.7212 0.0 0
M  V30 5 N 5.8542 -2.9781 0.0 0
M  V30 6 C 6.0621 -2.0 0.0 0
M  V30 7 C 4.8597 -3.0826 0.0 0
M  V30 8 C 5.1961 -1.5 0.0 0
M  V30 9 C 6.9282 -1.5 0.0 0
M  V30 10 C 4.453 -2.1691 0.0 0
M  V30 11 C 5.1961 -0.5 0.0 0
M  V30 12 C 6.9282 -0.5 0.0 0
M  V30 13 O 4.3301 0.0 0.0 0
M  V30 14 C 6.0621 0.0 0.0 0
M  V30 15 C 3.4641 -0.5 0.0 0
M  V30 16 C 2.598 0.0 0.0 0
M  V30 17 C 1.732 -0.5 0.0 0
M  V30 18 O 0.866 0.0 0.0 0
M  V30 19 C 0.0 -0.5 0.0 0
M  V30 20 C -0.866 0.0 0.0 0
M  V30 21 C 0.0 -1.5 0.0 0
M  V30 22 C -1.732 -0.4999 0.0 0
M  V30 23 C -0.866 1.0 0.0 0
M  V30 24 C -0.866 -1.9999 0.0 0
M  V30 25 O -2.6831 -0.1909 0.0 0
M  V30 26 C -1.732 -1.4999 0.0 0
M  V30 27 C 0.0 1.5 0.0 0
M  V30 28 N -3.2708 -0.9999 0.0 0
M  V30 29 C -2.6831 -1.809 0.0 0
M  V30 30 C 0.0 2.5 0.0 0
M  V30 31 C -2.9921 -2.76 0.0 0
M  V30 32 C -3.9702 -2.9679 0.0 0
M  V30 33 C -2.3229 -3.5032 0.0 0
M  V30 34 C -4.2792 -3.919 0.0 0
M  V30 35 C -2.632 -4.4542 0.0 0
M  V30 36 C -3.6101 -4.6621 0.0 0
M  V30 END ATOM
M  V30 BEGIN BOND
M  V30 1 2 1 2
M  V30 2 1 2 3
M  V30 3 1 2 4
M  V30 4 1 4 5
M  V30 5 1 5 6
M  V30 6 1 5 7
M  V30 7 2 6 8
M  V30 8 1 6 9
M  V30 9 2 7 10
M  V30 10 1 8 11
M  V30 11 2 9 12
M  V30 12 1 11 13
M  V30 13 2 11 14
M  V30 14 1 13 15
M  V30 15 1 15 16
M  V30 16 1 16 17
M  V30 17 1 17 18
M  V30 18 1 18 19
M  V30 19 2 19 20
M  V30 20 1 19 21
M  V30 21 1 20 22
M  V30 22 1 20 23
M  V30 23 2 21 24
M  V30 24 1 22 25
M  V30 25 2 22 26
M  V30 26 1 23 27
M  V30 27 1 25 28
M  V30 28 1 26 29
M  V30 29 1 27 30
M  V30 30 1 29 31
M  V30 31 2 31 32
M  V30 32 1 31 33
M  V30 33 1 32 34
M  V30 34 2 33 35
M  V30 35 2 34 36
M  V30 36 1 8 10
M  V30 37 1 12 14
M  V30 38 1 24 26
M  V30 39 2 28 29
M  V30 40 1 35 36
M  V30 END BOND
M  V30 END CTAB
M  END
>  <Molecule ChEMBL ID>
CHEMBL197496

>  <Smiles>
CCCc1c(OCCCOc2cccc3c2ccn3CC(=O)O)ccc2c(-c3ccccc3)noc12

>  <IC50_nM>
127

>  <Assay Description>
Displacement of [3H]rosiglitazone from human PPAR gamma by SPA assay

$$$$
CHEMBL2037006
Actelion Java MolfileCreator 2.0

  0  0  0  0  0  0              0 V3000
M  V30 BEGIN CTAB
M  V30 COUNTS 33 36 0 0 0
M  V30 BEGIN ATOM
M  V30 1 O 6.9282 -4.5 0.0 0
M  V30 2 C 6.9282 -3.5 0.0 0
M  V30 3 O 7.7942 -3.0 0.0 0
M  V30 4 C 6.0621 -3.0 0.0 0 CFG=1
M  V30 5 O 5.1961 -3.5 0.0 0
M  V30 6 C 6.0621 -1.9999 0.0 0
M  V30 7 C 5.1961 -4.4999 0.0 0
M  V30 8 C 5.1961 -1.4999 0.0 0
M  V30 9 C 4.3301 -4.9999 0.0 0
M  V30 10 C 6.0621 -5.0 0.0 0
M  V30 11 C 5.1961 -0.5 0.0 0
M  V30 12 C 4.3301 -1.9999 0.0 0
M  V30 13 C 4.3301 -5.9999 0.0 0
M  V30 14 C 6.0621 -5.9999 0.0 0
M  V30 15 C 4.3301 0.0 0.0 0
M  V30 16 C 3.4641 -1.5 0.0 0
M  V30 17 C 5.1961 -6.5 0.0 0
M  V30 18 C 3.4641 -0.5 0.0 0
M  V30 19 O 2.598 0.0 0.0 0
M  V30 20 C 1.732 -0.5 0.0 0
M  V30 21 C 0.866 0.0 0.0 0
M  V30 22 C 0.0 -0.5 0.0 0
M  V30 23 N -0.9135 -0.0932 0.0 0
M  V30 24 C -0.1045 -1.4945 0.0 0
M  V30 25 C -1.5826 -0.8364 0.0 0
M  V30 26 O -1.0826 -1.7024 0.0 0
M  V30 27 C 0.6386 -2.1636 0.0 0
M  V30 28 C -2.5771 -0.7318 0.0 0
M  V30 29 C -2.9839 0.1816 0.0 0
M  V30 30 C -3.1649 -1.5408 0.0 0
M  V30 31 C -3.9784 0.2861 0.0 0
M  V30 32 C -4.1595 -1.4363 0.0 0
M  V30 33 C -4.5662 -0.5228 0.0 0
M  V30 END ATOM
M  V30 BEGIN BOND
M  V30 1 2 1 2
M  V30 2 1 2 3
M  V30 3 1 2 4
M  V30 4 1 4 5 CFG=1
M  V30 5 1 4 6
M  V30 6 1 5 7
M  V30 7 1 6 8
M  V30 8 2 7 9
M  V30 9 1 7 10
M  V30 10 2 8 11
M  V30 11 1 8 12
M  V30 12 1 9 13
M  V30 13 2 10 14
M  V30 14 1 11 15
M  V30 15 2 12 16
M  V30 16 2 13 17
M  V30 17 2 15 18
M  V30 18 1 18 19
M  V30 19 1 19 20
M  V30 20 1 20 21
M  V30 21 1 21 22
M  V30 22 1 22 23
M  V30 23 2 22 24
M  V30 24 2 23 25
M  V30 25 1 24 26
M  V30 26 1 24 27
M  V30 27 1 25 28
M  V30 28 2 28 29
M  V30 29 1 28 30
M  V30 30 1 29 31
M  V30 31 2 30 32
M  V30 32 2 31 33
M  V30 33 1 14 17
M  V30 34 1 16 18
M  V30 35 1 25 26
M  V30 36 1 32 33
M  V30 END BOND
M  V30 BEGIN COLLECTION
M  V30 MDLV30/STEABS ATOMS=(1 4)
M  V30 END COLLECTION
M  V30 END CTAB
M  END
>  <Molecule ChEMBL ID>
CHEMBL2037006

>  <Smiles>
Cc1oc(-c2ccccc2)nc1CCOc1ccc(C[C@H](Oc2ccccc2)C(=O)O)cc1

>  <IC50_nM>
127.94

>  <Assay Description>
Agonist activity at PPARgamma

$$$$
CHEMBL2037006
Actelion Java MolfileCreator 2.0

  0  0  0  0  0  0              0 V3000
M  V30 BEGIN CTAB
M  V30 COUNTS 33 36 0 0 0
M  V30 BEGIN ATOM
M  V30 1 O 6.9282 -4.5 0.0 0
M  V30 2 C 6.9282 -3.5 0.0 0
M  V30 3 O 7.7942 -3.0 0.0 0
M  V30 4 C 6.0621 -3.0 0.0 0 CFG=1
M  V30 5 O 5.1961 -3.5 0.0 0
M  V30 6 C 6.0621 -1.9999 0.0 0
M  V30 7 C 5.1961 -4.4999 0.0 0
M  V30 8 C 5.1961 -1.4999 0.0 0
M  V30 9 C 4.3301 -4.9999 0.0 0
M  V30 10 C 6.0621 -5.0 0.0 0
M  V30 11 C 5.1961 -0.5 0.0 0
M  V30 12 C 4.3301 -1.9999 0.0 0
M  V30 13 C 4.3301 -5.9999 0.0 0
M  V30 14 C 6.0621 -5.9999 0.0 0
M  V30 15 C 4.3301 0.0 0.0 0
M  V30 16 C 3.4641 -1.5 0.0 0
M  V30 17 C 5.1961 -6.5 0.0 0
M  V30 18 C 3.4641 -0.5 0.0 0
M  V30 19 O 2.598 0.0 0.0 0
M  V30 20 C 1.732 -0.5 0.0 0
M  V30 21 C 0.866 0.0 0.0 0
M  V30 22 C 0.0 -0.5 0.0 0
M  V30 23 N -0.9135 -0.0932 0.0 0
M  V30 24 C -0.1045 -1.4945 0.0 0
M  V30 25 C -1.5826 -0.8364 0.0 0
M  V30 26 O -1.0826 -1.7024 0.0 0
M  V30 27 C 0.6386 -2.1636 0.0 0
M  V30 28 C -2.5771 -0.7318 0.0 0
M  V30 29 C -2.9839 0.1816 0.0 0
M  V30 30 C -3.1649 -1.5408 0.0 0
M  V30 31 C -3.9784 0.2861 0.0 0
M  V30 32 C -4.1595 -1.4363 0.0 0
M  V30 33 C -4.5662 -0.5228 0.0 0
M  V30 END ATOM
M  V30 BEGIN BOND
M  V30 1 2 1 2
M  V30 2 1 2 3
M  V30 3 1 2 4
M  V30 4 1 4 5 CFG=1
M  V30 5 1 4 6
M  V30 6 1 5 7
M  V30 7 1 6 8
M  V30 8 2 7 9
M  V30 9 1 7 10
M  V30 10 2 8 11
M  V30 11 1 8 12
M  V30 12 1 9 13
M  V30 13 2 10 14
M  V30 14 1 11 15
M  V30 15 2 12 16
M  V30 16 2 13 17
M  V30 17 2 15 18
M  V30 18 1 18 19
M  V30 19 1 19 20
M  V30 20 1 20 21
M  V30 21 1 21 22
M  V30 22 1 22 23
M  V30 23 2 22 24
M  V30 24 2 23 25
M  V30 25 1 24 26
M  V30 26 1 24 27
M  V30 27 1 25 28
M  V30 28 2 28 29
M  V30 29 1 28 30
M  V30 30 1 29 31
M  V30 31 2 30 32
M  V30 32 2 31 33
M  V30 33 1 14 17
M  V30 34 1 16 18
M  V30 35 1 25 26
M  V30 36 1 32 33
M  V30 END BOND
M  V30 BEGIN COLLECTION
M  V30 MDLV30/STEABS ATOMS=(1 4)
M  V30 END COLLECTION
M  V30 END CTAB
M  END
>  <Molecule ChEMBL ID>
CHEMBL2037006

>  <Smiles>
Cc1oc(-c2ccccc2)nc1CCOc1ccc(C[C@H](Oc2ccccc2)C(=O)O)cc1

>  <IC50_nM>
128

>  <Assay Description>
Agonist activity at PPARgamma

$$$$
CHEMBL81208
Actelion Java MolfileCreator 2.0

  0  0  0  0  0  0              0 V3000
M  V30 BEGIN CTAB
M  V30 COUNTS 33 36 0 0 0
M  V30 BEGIN ATOM
M  V30 1 O 6.9282 -4.5 0.0 0
M  V30 2 C 6.9282 -3.5 0.0 0
M  V30 3 O 7.7942 -3.0 0.0 0
M  V30 4 C 6.0621 -3.0 0.0 0 CFG=1
M  V30 5 O 5.1961 -3.5 0.0 0
M  V30 6 C 6.0621 -1.9999 0.0 0
M  V30 7 C 5.1961 -4.4999 0.0 0
M  V30 8 C 5.1961 -1.4999 0.0 0
M  V30 9 C 4.3301 -4.9999 0.0 0
M  V30 10 C 6.0621 -5.0 0.0 0
M  V30 11 C 5.1961 -0.5 0.0 0
M  V30 12 C 4.3301 -1.9999 0.0 0
M  V30 13 C 4.3301 -5.9999 0.0 0
M  V30 14 C 6.0621 -5.9999 0.0 0
M  V30 15 C 4.3301 0.0 0.0 0
M  V30 16 C 3.4641 -1.5 0.0 0
M  V30 17 C 5.1961 -6.5 0.0 0
M  V30 18 C 3.4641 -0.5 0.0 0
M  V30 19 O 2.598 0.0 0.0 0
M  V30 20 C 1.732 -0.5 0.0 0
M  V30 21 C 0.866 0.0 0.0 0
M  V30 22 C 0.0 -0.5 0.0 0
M  V30 23 N -0.9135 -0.0932 0.0 0
M  V30 24 C -0.1045 -1.4945 0.0 0
M  V30 25 C -1.5826 -0.8364 0.0 0
M  V30 26 O -1.0826 -1.7024 0.0 0
M  V30 27 C 0.6386 -2.1636 0.0 0
M  V30 28 C -2.5771 -0.7318 0.0 0
M  V30 29 C -2.9839 0.1816 0.0 0
M  V30 30 C -3.1649 -1.5408 0.0 0
M  V30 31 C -3.9784 0.2861 0.0 0
M  V30 32 C -4.1595 -1.4363 0.0 0
M  V30 33 C -4.5662 -0.5228 0.0 0
M  V30 END ATOM
M  V30 BEGIN BOND
M  V30 1 2 1 2
M  V30 2 1 2 3
M  V30 3 1 2 4
M  V30 4 1 4 5 CFG=1
M  V30 5 1 4 6
M  V30 6 1 5 7
M  V30 7 1 6 8
M  V30 8 2 7 9
M  V30 9 1 7 10
M  V30 10 2 8 11
M  V30 11 1 8 12
M  V30 12 1 9 13
M  V30 13 2 10 14
M  V30 14 1 11 15
M  V30 15 2 12 16
M  V30 16 2 13 17
M  V30 17 2 15 18
M  V30 18 1 18 19
M  V30 19 1 19 20
M  V30 20 1 20 21
M  V30 21 1 21 22
M  V30 22 1 22 23
M  V30 23 2 22 24
M  V30 24 2 23 25
M  V30 25 1 24 26
M  V30 26 1 24 27
M  V30 27 1 25 28
M  V30 28 2 28 29
M  V30 29 1 28 30
M  V30 30 1 29 31
M  V30 31 2 30 32
M  V30 32 2 31 33
M  V30 33 1 14 17
M  V30 34 1 16 18
M  V30 35 1 25 26
M  V30 36 1 32 33
M  V30 END BOND
M  V30 BEGIN COLLECTION
M  V30 MDLV30/STERAC1 ATOMS=(1 4)
M  V30 END COLLECTION
M  V30 END CTAB
M  END
>  <Molecule ChEMBL ID>
CHEMBL81208

>  <Smiles>
Cc1oc(-c2ccccc2)nc1CCOc1ccc(CC(Oc2ccccc2)C(=O)O)cc1

>  <IC50_nM>
128

>  <Assay Description>
Displacement of PPARgamma agonist from human PPAR gamma receptor

$$$$
CHEMBL425766
Actelion Java MolfileCreator 2.0

  0  0  0  0  0  0              0 V3000
M  V30 BEGIN CTAB
M  V30 COUNTS 36 39 0 0 0
M  V30 BEGIN ATOM
M  V30 1 F 7.7942 -6.0 0.0 0
M  V30 2 C 7.7942 -5.0 0.0 0
M  V30 3 C 8.6602 -4.5 0.0 0
M  V30 4 C 6.9282 -4.5 0.0 0
M  V30 5 C 8.6602 -3.5 0.0 0
M  V30 6 C 6.9282 -3.5 0.0 0
M  V30 7 C 7.7942 -3.0 0.0 0
M  V30 8 C 7.7942 -2.0 0.0 0
M  V30 9 O 8.6602 -1.5 0.0 0
M  V30 10 C 6.9282 -1.5 0.0 0
M  V30 11 C 6.9282 -0.5 0.0 0
M  V30 12 C 6.0621 -2.0 0.0 0
M  V30 13 C 6.0621 0.0 0.0 0
M  V30 14 C 5.1961 -1.5 0.0 0
M  V30 15 C 5.1961 -0.5 0.0 0
M  V30 16 C 6.0621 0.9999 0.0 0
M  V30 17 O 4.3301 0.0 0.0 0
M  V30 18 C 6.9282 1.4999 0.0 0
M  V30 19 C 3.4641 -0.5 0.0 0
M  V30 20 C 6.9282 2.4999 0.0 0
M  V30 21 C 2.598 0.0 0.0 0
M  V30 22 C 1.732 -0.5 0.0 0
M  V30 23 O 0.866 0.0 0.0 0
M  V30 24 C 0.0 -0.5 0.0 0
M  V30 25 C 0.0 -1.4999 0.0 0
M  V30 26 C -0.866 0.0 0.0 0
M  V30 27 C -0.866 -1.9999 0.0 0
M  V30 28 C -1.732 -0.4999 0.0 0
M  V30 29 C -1.732 -1.4999 0.0 0
M  V30 30 C -1.0739 -2.9781 0.0 0
M  V30 31 N -2.4751 -2.1691 0.0 0
M  V30 32 C -2.0684 -3.0826 0.0 0
M  V30 33 C -3.4533 -1.9612 0.0 0
M  V30 34 C -3.7623 -1.0101 0.0 0
M  V30 35 O -3.0932 -0.267 0.0 0
M  V30 36 O -4.7405 -0.8022 0.0 0
M  V30 END ATOM
M  V30 BEGIN BOND
M  V30 1 1 1 2
M  V30 2 2 2 3
M  V30 3 1 2 4
M  V30 4 1 3 5
M  V30 5 2 4 6
M  V30 6 2 5 7
M  V30 7 1 7 8
M  V30 8 2 8 9
M  V30 9 1 8 10
M  V30 10 2 10 11
M  V30 11 1 10 12
M  V30 12 1 11 13
M  V30 13 2 12 14
M  V30 14 2 13 15
M  V30 15 1 13 16
M  V30 16 1 15 17
M  V30 17 1 16 18
M  V30 18 1 17 19
M  V30 19 1 18 20
M  V30 20 1 19 21
M  V30 21 1 21 22
M  V30 22 1 22 23
M  V30 23 1 23 24
M  V30 24 2 24 25
M  V30 25 1 24 26
M  V30 26 1 25 27
M  V30 27 2 26 28
M  V30 28 2 27 29
M  V30 29 1 27 30
M  V30 30 1 29 31
M  V30 31 2 30 32
M  V30 32 1 31 33
M  V30 33 1 33 34
M  V30 34 2 34 35
M  V30 35 1 34 36
M  V30 36 1 6 7
M  V30 37 1 14 15
M  V30 38 1 28 29
M  V30 39 1 31 32
M  V30 END BOND
M  V30 END CTAB
M  END
>  <Molecule ChEMBL ID>
CHEMBL425766

>  <Smiles>
CCCc1cc(C(=O)c2ccc(F)cc2)ccc1OCCCOc1ccc2c(ccn2CC(=O)O)c1

>  <IC50_nM>
129

>  <Assay Description>
Displacement of [3H]rosiglitazone from human PPAR gamma by SPA assay

$$$$
CHEMBL425766
Actelion Java MolfileCreator 2.0

  0  0  0  0  0  0              0 V3000
M  V30 BEGIN CTAB
M  V30 COUNTS 36 39 0 0 0
M  V30 BEGIN ATOM
M  V30 1 F 7.7942 -6.0 0.0 0
M  V30 2 C 7.7942 -5.0 0.0 0
M  V30 3 C 8.6602 -4.5 0.0 0
M  V30 4 C 6.9282 -4.5 0.0 0
M  V30 5 C 8.6602 -3.5 0.0 0
M  V30 6 C 6.9282 -3.5 0.0 0
M  V30 7 C 7.7942 -3.0 0.0 0
M  V30 8 C 7.7942 -2.0 0.0 0
M  V30 9 O 8.6602 -1.5 0.0 0
M  V30 10 C 6.9282 -1.5 0.0 0
M  V30 11 C 6.9282 -0.5 0.0 0
M  V30 12 C 6.0621 -2.0 0.0 0
M  V30 13 C 6.0621 0.0 0.0 0
M  V30 14 C 5.1961 -1.5 0.0 0
M  V30 15 C 5.1961 -0.5 0.0 0
M  V30 16 C 6.0621 0.9999 0.0 0
M  V30 17 O 4.3301 0.0 0.0 0
M  V30 18 C 6.9282 1.4999 0.0 0
M  V30 19 C 3.4641 -0.5 0.0 0
M  V30 20 C 6.9282 2.4999 0.0 0
M  V30 21 C 2.598 0.0 0.0 0
M  V30 22 C 1.732 -0.5 0.0 0
M  V30 23 O 0.866 0.0 0.0 0
M  V30 24 C 0.0 -0.5 0.0 0
M  V30 25 C 0.0 -1.4999 0.0 0
M  V30 26 C -0.866 0.0 0.0 0
M  V30 27 C -0.866 -1.9999 0.0 0
M  V30 28 C -1.732 -0.4999 0.0 0
M  V30 29 C -1.732 -1.4999 0.0 0
M  V30 30 C -1.0739 -2.9781 0.0 0
M  V30 31 N -2.4751 -2.1691 0.0 0
M  V30 32 C -2.0684 -3.0826 0.0 0
M  V30 33 C -3.4533 -1.9612 0.0 0
M  V30 34 C -3.7623 -1.0101 0.0 0
M  V30 35 O -3.0932 -0.267 0.0 0
M  V30 36 O -4.7405 -0.8022 0.0 0
M  V30 END ATOM
M  V30 BEGIN BOND
M  V30 1 1 1 2
M  V30 2 2 2 3
M  V30 3 1 2 4
M  V30 4 1 3 5
M  V30 5 2 4 6
M  V30 6 2 5 7
M  V30 7 1 7 8
M  V30 8 2 8 9
M  V30 9 1 8 10
M  V30 10 2 10 11
M  V30 11 1 10 12
M  V30 12 1 11 13
M  V30 13 2 12 14
M  V30 14 2 13 15
M  V30 15 1 13 16
M  V30 16 1 15 17
M  V30 17 1 16 18
M  V30 18 1 17 19
M  V30 19 1 18 20
M  V30 20 1 19 21
M  V30 21 1 21 22
M  V30 22 1 22 23
M  V30 23 1 23 24
M  V30 24 2 24 25
M  V30 25 1 24 26
M  V30 26 1 25 27
M  V30 27 2 26 28
M  V30 28 2 27 29
M  V30 29 1 27 30
M  V30 30 1 29 31
M  V30 31 2 30 32
M  V30 32 1 31 33
M  V30 33 1 33 34
M  V30 34 2 34 35
M  V30 35 1 34 36
M  V30 36 1 6 7
M  V30 37 1 14 15
M  V30 38 1 28 29
M  V30 39 1 31 32
M  V30 END BOND
M  V30 END CTAB
M  END
>  <Molecule ChEMBL ID>
CHEMBL425766

>  <Smiles>
CCCc1cc(C(=O)c2ccc(F)cc2)ccc1OCCCOc1ccc2c(ccn2CC(=O)O)c1

>  <IC50_nM>
129.12

>  <Assay Description>
Agonist activity at PPARgamma

$$$$
CHEMBL403432
Actelion Java MolfileCreator 2.0

  0  0  0  0  0  0              0 V3000
M  V30 BEGIN CTAB
M  V30 COUNTS 38 41 0 0 0
M  V30 BEGIN ATOM
M  V30 1 O 6.4951 0.0 0.0 0
M  V30 2 C 5.1961 -0.75 0.0 0
M  V30 3 O 3.8971 0.0 0.0 0
M  V30 4 N 5.1961 -2.25 0.0 0
M  V30 5 C 2.598 -0.75 0.0 0
M  V30 6 C 3.8971 -3.0 0.0 0
M  V30 7 C 6.4951 -3.0 0.0 0
M  V30 8 C 1.299 0.0 0.0 0
M  V30 9 C 3.8971 -4.5 0.0 0
M  V30 10 C 6.4951 -4.5 0.0 0
M  V30 11 C 1.299 1.5 0.0 0
M  V30 12 C 0.0 -0.75 0.0 0
M  V30 13 C 2.598 -5.25 0.0 0
M  V30 14 C 5.1961 -5.25 0.0 0
M  V30 15 C 1.299 -4.5 0.0 0
M  V30 16 C 2.598 -6.75 0.0 0
M  V30 17 C 5.1961 -6.75 0.0 0
M  V30 18 C 0.0 -5.25 0.0 0
M  V30 19 C 1.299 -7.5 0.0 0
M  V30 20 C 6.4951 -7.5 0.0 0
M  V30 21 O -1.299 -4.5 0.0 0
M  V30 22 C 0.0 -6.75 0.0 0
M  V30 23 O 7.7942 -6.75 0.0 0
M  V30 24 O 6.4951 -9.0 0.0 0
M  V30 25 C -2.598 -5.25 0.0 0
M  V30 26 C -3.8971 -4.4999 0.0 0
M  V30 27 C -5.1961 -5.25 0.0 0
M  V30 28 N -6.5664 -4.6398 0.0 0
M  V30 29 C -5.3529 -6.7417 0.0 0
M  V30 30 C -7.5701 -5.7546 0.0 0
M  V30 31 O -6.8201 -7.0536 0.0 0
M  V30 32 C -4.2382 -7.7454 0.0 0
M  V30 33 C -9.0619 -5.5978 0.0 0
M  V30 34 C -9.672 -4.2275 0.0 0
M  V30 35 C -9.9436 -6.8113 0.0 0
M  V30 36 C -11.1638 -4.0707 0.0 0
M  V30 37 C -11.4354 -6.6545 0.0 0
M  V30 38 C -12.0455 -5.2842 0.0 0
M  V30 END ATOM
M  V30 BEGIN BOND
M  V30 1 2 1 2
M  V30 2 1 2 3
M  V30 3 1 2 4
M  V30 4 1 3 5
M  V30 5 1 4 6
M  V30 6 1 4 7
M  V30 7 1 5 8
M  V30 8 1 6 9
M  V30 9 1 7 10
M  V30 10 1 8 11
M  V30 11 1 8 12
M  V30 12 1 9 13
M  V30 13 2 9 14
M  V30 14 2 13 15
M  V30 15 1 13 16
M  V30 16 1 14 17
M  V30 17 1 15 18
M  V30 18 2 16 19
M  V30 19 1 17 20
M  V30 20 1 18 21
M  V30 21 2 18 22
M  V30 22 2 20 23
M  V30 23 1 20 24
M  V30 24 1 21 25
M  V30 25 1 25 26
M  V30 26 1 26 27
M  V30 27 1 27 28
M  V30 28 2 27 29
M  V30 29 2 28 30
M  V30 30 1 29 31
M  V30 31 1 29 32
M  V30 32 1 30 33
M  V30 33 2 33 34
M  V30 34 1 33 35
M  V30 35 1 34 36
M  V30 36 2 35 37
M  V30 37 2 36 38
M  V30 38 1 10 14
M  V30 39 1 19 22
M  V30 40 1 30 31
M  V30 41 1 37 38
M  V30 END BOND
M  V30 END CTAB
M  END
>  <Molecule ChEMBL ID>
CHEMBL403432

>  <Smiles>
Cc1oc(-c2ccccc2)nc1CCOc1cccc(C2=C(CC(=O)O)CCN(C(=O)OCC(C)C)C2)c1

>  <IC50_nM>
130

>  <Assay Description>
Binding affinity at human PPARalpha by fluorescence polarization

$$$$
CHEMBL53746
Actelion Java MolfileCreator 2.0

  0  0  0  0  0  0              0 V3000
M  V30 BEGIN CTAB
M  V30 COUNTS 38 41 0 0 0
M  V30 BEGIN ATOM
M  V30 1 S 7.8987 -2.9945 0.0 0
M  V30 2 C 8.8769 -3.2024 0.0 0
M  V30 3 C 7.7942 -2.0 0.0 0 CFG=2
M  V30 4 O 9.2836 -4.1159 0.0 0
M  V30 5 N 9.3769 -2.3364 0.0 0
M  V30 6 C 6.9282 -1.5 0.0 0
M  V30 7 C 8.7077 -1.5932 0.0 0
M  V30 8 C 6.9282 -0.5 0.0 0
M  V30 9 C 6.0621 -2.0 0.0 0
M  V30 10 O 8.9156 -0.6151 0.0 0
M  V30 11 C 6.0621 0.0 0.0 0
M  V30 12 C 5.1961 -1.5 0.0 0
M  V30 13 C 5.1961 -0.5 0.0 0
M  V30 14 O 4.3301 0.0 0.0 0
M  V30 15 C 3.4641 -0.5 0.0 0
M  V30 16 C 2.598 0.0 0.0 0
M  V30 17 C 1.732 -0.5 0.0 0
M  V30 18 O 0.866 0.0 0.0 0
M  V30 19 C 0.0 -0.5 0.0 0
M  V30 20 C -0.866 0.0 0.0 0
M  V30 21 C 0.0 -1.4999 0.0 0
M  V30 22 C -1.732 -0.4999 0.0 0
M  V30 23 C -0.866 1.0 0.0 0
M  V30 24 C -0.866 -1.9999 0.0 0
M  V30 25 C -1.732 -1.4999 0.0 0
M  V30 26 C 0.0 1.5 0.0 0
M  V30 27 O -2.598 -1.9999 0.0 0
M  V30 28 C 0.0 2.5 0.0 0
M  V30 29 C -2.598 -2.9999 0.0 0
M  V30 30 C -3.4641 -3.4999 0.0 0
M  V30 31 C -1.732 -3.4999 0.0 0
M  V30 32 C -3.4641 -4.4999 0.0 0
M  V30 33 C -1.732 -4.4999 0.0 0
M  V30 34 C -2.598 -4.9999 0.0 0
M  V30 35 C -2.598 -5.9999 0.0 0
M  V30 36 C -3.4641 -6.4999 0.0 0
M  V30 37 C -4.3301 -5.9999 0.0 0
M  V30 38 C -3.4641 -7.4999 0.0 0
M  V30 END ATOM
M  V30 BEGIN BOND
M  V30 1 1 1 2
M  V30 2 1 1 3
M  V30 3 2 2 4
M  V30 4 1 2 5
M  V30 5 1 3 6 CFG=3
M  V30 6 1 3 7
M  V30 7 2 6 8
M  V30 8 1 6 9
M  V30 9 2 7 10
M  V30 10 1 8 11
M  V30 11 2 9 12
M  V30 12 2 11 13
M  V30 13 1 13 14
M  V30 14 1 14 15
M  V30 15 1 15 16
M  V30 16 1 16 17
M  V30 17 1 17 18
M  V30 18 1 18 19
M  V30 19 2 19 20
M  V30 20 1 19 21
M  V30 21 1 20 22
M  V30 22 1 20 23
M  V30 23 2 21 24
M  V30 24 2 22 25
M  V30 25 1 23 26
M  V30 26 1 25 27
M  V30 27 1 26 28
M  V30 28 1 27 29
M  V30 29 2 29 30
M  V30 30 1 29 31
M  V30 31 1 30 32
M  V30 32 2 31 33
M  V30 33 2 32 34
M  V30 34 1 34 35
M  V30 35 1 35 36
M  V30 36 1 36 37
M  V30 37 1 36 38
M  V30 38 1 5 7
M  V30 39 1 12 13
M  V30 40 1 24 25
M  V30 41 1 33 34
M  V30 END BOND
M  V30 BEGIN COLLECTION
M  V30 MDLV30/STERAC1 ATOMS=(1 3)
M  V30 END COLLECTION
M  V30 END CTAB
M  END
>  <Molecule ChEMBL ID>
CHEMBL53746

>  <Smiles>
CCCc1cc(Oc2ccc(CC(C)C)cc2)ccc1OCCCOc1ccc(C2SC(=O)NC2=O)cc1

>  <IC50_nM>
130

>  <Assay Description>
In vitro binding affinity against human PPAR gamma (peroxisome proliferator-activated gamma receptor)

$$$$
CHEMBL430970
Actelion Java MolfileCreator 2.0

  0  0  0  0  0  0              0 V3000
M  V30 BEGIN CTAB
M  V30 COUNTS 40 44 0 0 0
M  V30 BEGIN ATOM
M  V30 1 S 7.8987 -2.9945 0.0 0
M  V30 2 C 8.8769 -3.2024 0.0 0
M  V30 3 C 7.7942 -2.0 0.0 0 CFG=2
M  V30 4 O 9.2836 -4.1159 0.0 0
M  V30 5 N 9.3769 -2.3364 0.0 0
M  V30 6 C 6.9282 -1.5 0.0 0
M  V30 7 C 8.7077 -1.5932 0.0 0
M  V30 8 C 6.9282 -0.5 0.0 0
M  V30 9 C 6.0621 -2.0 0.0 0
M  V30 10 O 8.9156 -0.6151 0.0 0
M  V30 11 C 6.0621 0.0 0.0 0
M  V30 12 C 5.1961 -1.5 0.0 0
M  V30 13 C 5.1961 -0.5 0.0 0
M  V30 14 O 4.3301 0.0 0.0 0
M  V30 15 C 3.4641 -0.5 0.0 0
M  V30 16 C 2.598 0.0 0.0 0
M  V30 17 C 1.732 -0.5 0.0 0
M  V30 18 O 0.866 0.0 0.0 0
M  V30 19 C 0.0 -0.5 0.0 0
M  V30 20 C -0.866 0.0 0.0 0
M  V30 21 C 0.0 -1.4999 0.0 0
M  V30 22 C -1.732 -0.4999 0.0 0
M  V30 23 C -0.866 1.0 0.0 0
M  V30 24 C -0.866 -1.9999 0.0 0
M  V30 25 C -1.732 -1.4999 0.0 0
M  V30 26 C 0.0 1.5 0.0 0
M  V30 27 O -2.598 -1.9999 0.0 0
M  V30 28 C 0.0 2.5 0.0 0
M  V30 29 C -2.598 -2.9999 0.0 0
M  V30 30 C -3.4641 -3.4999 0.0 0
M  V30 31 C -1.732 -3.4999 0.0 0
M  V30 32 C -3.4641 -4.4999 0.0 0
M  V30 33 C -1.732 -4.4999 0.0 0
M  V30 34 C -2.598 -4.9999 0.0 0
M  V30 35 C -2.598 -5.9999 0.0 0
M  V30 36 C -3.4641 -6.4999 0.0 0
M  V30 37 C -1.732 -6.4999 0.0 0
M  V30 38 C -3.4641 -7.4999 0.0 0
M  V30 39 C -1.732 -7.4999 0.0 0
M  V30 40 C -2.598 -7.9999 0.0 0
M  V30 END ATOM
M  V30 BEGIN BOND
M  V30 1 1 1 2
M  V30 2 1 1 3
M  V30 3 2 2 4
M  V30 4 1 2 5
M  V30 5 1 3 6 CFG=3
M  V30 6 1 3 7
M  V30 7 2 6 8
M  V30 8 1 6 9
M  V30 9 2 7 10
M  V30 10 1 8 11
M  V30 11 2 9 12
M  V30 12 2 11 13
M  V30 13 1 13 14
M  V30 14 1 14 15
M  V30 15 1 15 16
M  V30 16 1 16 17
M  V30 17 1 17 18
M  V30 18 1 18 19
M  V30 19 2 19 20
M  V30 20 1 19 21
M  V30 21 1 20 22
M  V30 22 1 20 23
M  V30 23 2 21 24
M  V30 24 2 22 25
M  V30 25 1 23 26
M  V30 26 1 25 27
M  V30 27 1 26 28
M  V30 28 1 27 29
M  V30 29 2 29 30
M  V30 30 1 29 31
M  V30 31 1 30 32
M  V30 32 2 31 33
M  V30 33 2 32 34
M  V30 34 1 34 35
M  V30 35 2 35 36
M  V30 36 1 35 37
M  V30 37 1 36 38
M  V30 38 2 37 39
M  V30 39 2 38 40
M  V30 40 1 5 7
M  V30 41 1 12 13
M  V30 42 1 24 25
M  V30 43 1 33 34
M  V30 44 1 39 40
M  V30 END BOND
M  V30 BEGIN COLLECTION
M  V30 MDLV30/STERAC1 ATOMS=(1 3)
M  V30 END COLLECTION
M  V30 END CTAB
M  END
>  <Molecule ChEMBL ID>
CHEMBL430970

>  <Smiles>
CCCc1cc(Oc2ccc(-c3ccccc3)cc2)ccc1OCCCOc1ccc(C2SC(=O)NC2=O)cc1

>  <IC50_nM>
130

>  <Assay Description>
In vitro binding affinity against human PPAR gamma (peroxisome proliferator-activated gamma receptor)

$$$$
CHEMBL3598140
Actelion Java MolfileCreator 2.0

  0  0  0  0  0  0              0 V3000
M  V30 BEGIN CTAB
M  V30 COUNTS 31 34 0 0 0
M  V30 BEGIN ATOM
M  V30 1 Cl -0.866 0.9999 0.0 0
M  V30 2 C 0.0 1.4999 0.0 0
M  V30 3 C 0.866 0.9999 0.0 0
M  V30 4 C 0.0 2.4999 0.0 0
M  V30 5 C 1.732 1.5 0.0 0
M  V30 6 C 0.866 0.0 0.0 0
M  V30 7 C 0.866 3.0 0.0 0
M  V30 8 C 1.732 2.4999 0.0 0
M  V30 9 C 2.598 1.0 0.0 0
M  V30 10 O 1.732 -0.5 0.0 0
M  V30 11 N 0.0 -0.5 0.0 0
M  V30 12 F 3.098 1.866 0.0 0
M  V30 13 F 3.4641 0.5 0.0 0
M  V30 14 F 2.098 0.1339 0.0 0
M  V30 15 N -0.9135 -0.0932 0.0 0
M  V30 16 C -0.1045 -1.4945 0.0 0
M  V30 17 C -1.5826 -0.8364 0.0 0
M  V30 18 C -1.0826 -1.7024 0.0 0
M  V30 19 C 0.5646 -2.2376 0.0 0
M  V30 20 C -2.5771 -0.7318 0.0 0
M  V30 21 C -1.3916 -2.6534 0.0 0
M  V30 22 C 0.2555 -3.1887 0.0 0
M  V30 23 C -2.9839 0.1816 0.0 0
M  V30 24 C -3.1649 -1.5408 0.0 0
M  V30 25 C -0.7225 -3.3966 0.0 0
M  V30 26 C -3.9784 0.2861 0.0 0
M  V30 27 C -4.1595 -1.4363 0.0 0
M  V30 28 C -4.5662 -0.5228 0.0 0
M  V30 29 C -5.5607 -0.4182 0.0 0
M  V30 30 O -5.9675 0.4952 0.0 0
M  V30 31 O -6.1485 -1.2273 0.0 0
M  V30 END ATOM
M  V30 BEGIN BOND
M  V30 1 1 1 2
M  V30 2 2 2 3
M  V30 3 1 2 4
M  V30 4 1 3 5
M  V30 5 1 3 6
M  V30 6 2 4 7
M  V30 7 2 5 8
M  V30 8 1 5 9
M  V30 9 2 6 10
M  V30 10 1 6 11
M  V30 11 1 9 12
M  V30 12 1 9 13
M  V30 13 1 9 14
M  V30 14 1 11 15
M  V30 15 1 11 16
M  V30 16 2 15 17
M  V30 17 2 16 18
M  V30 18 1 16 19
M  V30 19 1 17 20
M  V30 20 1 18 21
M  V30 21 2 19 22
M  V30 22 2 20 23
M  V30 23 1 20 24
M  V30 24 2 21 25
M  V30 25 1 23 26
M  V30 26 2 24 27
M  V30 27 2 26 28
M  V30 28 1 28 29
M  V30 29 2 29 30
M  V30 30 1 29 31
M  V30 31 1 7 8
M  V30 32 1 17 18
M  V30 33 1 22 25
M  V30 34 1 27 28
M  V30 END BOND
M  V30 END CTAB
M  END
>  <Molecule ChEMBL ID>
CHEMBL3598140

>  <Smiles>
O=C(O)c1ccc(-c2nn(C(=O)c3c(Cl)cccc3C(F)(F)F)c3ccccc23)cc1

>  <IC50_nM>
130

>  <Assay Description>
Displacement of fluormone PPARgamma green from GST-tagged human PPARgamma-LBD after 2 hrs by fluorescence polarization assay

$$$$
CHEMBL3598140
Actelion Java MolfileCreator 2.0

  0  0  0  0  0  0              0 V3000
M  V30 BEGIN CTAB
M  V30 COUNTS 31 34 0 0 0
M  V30 BEGIN ATOM
M  V30 1 Cl -0.866 0.9999 0.0 0
M  V30 2 C 0.0 1.4999 0.0 0
M  V30 3 C 0.866 0.9999 0.0 0
M  V30 4 C 0.0 2.4999 0.0 0
M  V30 5 C 1.732 1.5 0.0 0
M  V30 6 C 0.866 0.0 0.0 0
M  V30 7 C 0.866 3.0 0.0 0
M  V30 8 C 1.732 2.4999 0.0 0
M  V30 9 C 2.598 1.0 0.0 0
M  V30 10 O 1.732 -0.5 0.0 0
M  V30 11 N 0.0 -0.5 0.0 0
M  V30 12 F 3.098 1.866 0.0 0
M  V30 13 F 3.4641 0.5 0.0 0
M  V30 14 F 2.098 0.1339 0.0 0
M  V30 15 N -0.9135 -0.0932 0.0 0
M  V30 16 C -0.1045 -1.4945 0.0 0
M  V30 17 C -1.5826 -0.8364 0.0 0
M  V30 18 C -1.0826 -1.7024 0.0 0
M  V30 19 C 0.5646 -2.2376 0.0 0
M  V30 20 C -2.5771 -0.7318 0.0 0
M  V30 21 C -1.3916 -2.6534 0.0 0
M  V30 22 C 0.2555 -3.1887 0.0 0
M  V30 23 C -2.9839 0.1816 0.0 0
M  V30 24 C -3.1649 -1.5408 0.0 0
M  V30 25 C -0.7225 -3.3966 0.0 0
M  V30 26 C -3.9784 0.2861 0.0 0
M  V30 27 C -4.1595 -1.4363 0.0 0
M  V30 28 C -4.5662 -0.5228 0.0 0
M  V30 29 C -5.5607 -0.4182 0.0 0
M  V30 30 O -5.9675 0.4952 0.0 0
M  V30 31 O -6.1485 -1.2273 0.0 0
M  V30 END ATOM
M  V30 BEGIN BOND
M  V30 1 1 1 2
M  V30 2 2 2 3
M  V30 3 1 2 4
M  V30 4 1 3 5
M  V30 5 1 3 6
M  V30 6 2 4 7
M  V30 7 2 5 8
M  V30 8 1 5 9
M  V30 9 2 6 10
M  V30 10 1 6 11
M  V30 11 1 9 12
M  V30 12 1 9 13
M  V30 13 1 9 14
M  V30 14 1 11 15
M  V30 15 1 11 16
M  V30 16 2 15 17
M  V30 17 2 16 18
M  V30 18 1 16 19
M  V30 19 1 17 20
M  V30 20 1 18 21
M  V30 21 2 19 22
M  V30 22 2 20 23
M  V30 23 1 20 24
M  V30 24 2 21 25
M  V30 25 1 23 26
M  V30 26 2 24 27
M  V30 27 2 26 28
M  V30 28 1 28 29
M  V30 29 2 29 30
M  V30 30 1 29 31
M  V30 31 1 7 8
M  V30 32 1 17 18
M  V30 33 1 22 25
M  V30 34 1 27 28
M  V30 END BOND
M  V30 END CTAB
M  END
>  <Molecule ChEMBL ID>
CHEMBL3598140

>  <Smiles>
O=C(O)c1ccc(-c2nn(C(=O)c3c(Cl)cccc3C(F)(F)F)c3ccccc23)cc1

>  <IC50_nM>
130

>  <Assay Description>
Inverse agonist activity at human PPARgamma

$$$$
CHEMBL3678113
Actelion Java MolfileCreator 2.0

  0  0  0  0  0  0              0 V3000
M  V30 BEGIN CTAB
M  V30 COUNTS 38 41 0 0 0
M  V30 BEGIN ATOM
M  V30 1 O 17.1679 -0.319 0.0 0
M  V30 2 C 16.1642 0.7957 0.0 0
M  V30 3 N 16.6278 2.2222 0.0 0
M  V30 4 C 14.697 0.4838 0.0 0
M  V30 5 C 15.6241 3.337 0.0 0 CFG=2
M  V30 6 C 14.2335 -0.9427 0.0 0
M  V30 7 C 13.6933 1.5985 0.0 0
M  V30 8 C 16.0876 4.7635 0.0 0
M  V30 9 C 14.1568 3.0251 0.0 0
M  V30 10 C 12.7663 -1.2546 0.0 0
M  V30 11 C 12.2261 1.2866 0.0 0
M  V30 12 C 17.5548 5.0754 0.0 0
M  V30 13 C 15.0839 5.8783 0.0 0
M  V30 14 C 11.7626 -0.1398 0.0 0
M  V30 15 C 12.0163 -2.5536 0.0 0
M  V30 16 C 18.0183 6.502 0.0 0
M  V30 17 C 15.5474 7.3048 0.0 0
M  V30 18 N 10.3923 -0.75 0.0 0
M  V30 19 C 10.549 -2.2417 0.0 0
M  V30 20 C 12.6264 -3.9239 0.0 0
M  V30 21 C 17.0146 7.6167 0.0 0
M  V30 22 C 9.0932 0.0 0.0 0
M  V30 23 C 9.4343 -3.2454 0.0 0
M  V30 24 C 17.4782 9.0433 0.0 0
M  V30 25 C 7.7942 -0.75 0.0 0
M  V30 26 C 16.0516 9.5068 0.0 0
M  V30 27 C 17.9417 10.4699 0.0 0
M  V30 28 C 18.9048 8.5798 0.0 0
M  V30 29 C 6.4951 0.0 0.0 0
M  V30 30 C 7.7942 -2.25 0.0 0
M  V30 31 C 5.1961 -0.75 0.0 0
M  V30 32 C 6.4951 -3.0 0.0 0
M  V30 33 O 3.8971 0.0 0.0 0
M  V30 34 C 5.1961 -2.25 0.0 0
M  V30 35 C 2.598 -0.75 0.0 0
M  V30 36 C 1.299 0.0 0.0 0
M  V30 37 O 1.299 1.5 0.0 0
M  V30 38 O 0.0 -0.75 0.0 0
M  V30 END ATOM
M  V30 BEGIN BOND
M  V30 1 2 1 2
M  V30 2 1 2 3
M  V30 3 1 2 4
M  V30 4 1 3 5
M  V30 5 2 4 6
M  V30 6 1 4 7
M  V30 7 1 5 8
M  V30 8 1 5 9 CFG=1
M  V30 9 1 6 10
M  V30 10 2 7 11
M  V30 11 2 8 12
M  V30 12 1 8 13
M  V30 13 2 10 14
M  V30 14 1 10 15
M  V30 15 1 12 16
M  V30 16 2 13 17
M  V30 17 1 14 18
M  V30 18 2 15 19
M  V30 19 1 15 20
M  V30 20 2 16 21
M  V30 21 1 18 22
M  V30 22 1 19 23
M  V30 23 1 21 24
M  V30 24 1 22 25
M  V30 25 1 24 26
M  V30 26 1 24 27
M  V30 27 1 24 28
M  V30 28 2 25 29
M  V30 29 1 25 30
M  V30 30 1 29 31
M  V30 31 2 30 32
M  V30 32 1 31 33
M  V30 33 2 31 34
M  V30 34 1 33 35
M  V30 35 1 35 36
M  V30 36 2 36 37
M  V30 37 1 36 38
M  V30 38 1 11 14
M  V30 39 1 17 21
M  V30 40 1 18 19
M  V30 41 1 32 34
M  V30 END BOND
M  V30 BEGIN COLLECTION
M  V30 MDLV30/STEABS ATOMS=(1 5)
M  V30 END COLLECTION
M  V30 END CTAB
M  END
>  <Molecule ChEMBL ID>
CHEMBL3678113

>  <Smiles>
Cc1c(C)n(Cc2cccc(OCC(=O)O)c2)c2ccc(C(=O)N[C@@H](C)c3ccc(C(C)(C)C)cc3)cc12

>  <IC50_nM>
131

>  <Assay Description>
Lanthascreen Competitive Binding Assay: The assay was performed according to manufacturer protocol. A mixture of 5 nM GST-PPARG-LBD, 5 nM Tb-GST-antibody, 5 nM Fluormone Pan- PPAR Green, and serial dilutions of the experimental compound, beginning at 10 ׬� downwards, was added to wells of black 384-well low- volume plates (Greiner) to a total volume of 18 xL. All dilutions were made in TR-FRET assay buffer C. DMSO at 2% final concentration was used as a no-ligand control. Experiment was performed in triplicate, and incubated for 2 hours in the dark prior to assay read in Perkin Elmer ViewLux ultra HTS microplate reader. FRET signal was measured by excitation at 340 nm and emission at 520 nm for fluorescein and 490 nm for terbium.

$$$$
CHEMBL246473
Actelion Java MolfileCreator 2.0

  0  0  0  0  0  0              0 V3000
M  V30 BEGIN CTAB
M  V30 COUNTS 35 38 0 0 0
M  V30 BEGIN ATOM
M  V30 1 O 5.1961 -0.5 0.0 0
M  V30 2 C 4.3301 0.0 0.0 0
M  V30 3 O 4.3301 1.0 0.0 0
M  V30 4 C 3.4641 -0.5 0.0 0
M  V30 5 N 2.598 0.0 0.0 0
M  V30 6 C 2.598 1.0 0.0 0
M  V30 7 C 1.732 -0.5 0.0 0
M  V30 8 C 1.732 1.5 0.0 0
M  V30 9 C 0.866 0.0 0.0 0
M  V30 10 C 1.732 2.5 0.0 0
M  V30 11 C 0.866 1.0 0.0 0
M  V30 12 C 0.0 -0.5 0.0 0
M  V30 13 C 0.866 3.0 0.0 0
M  V30 14 C 0.0 1.5 0.0 0
M  V30 15 C -0.866 0.0 0.0 0
M  V30 16 C 0.0 -1.4999 0.0 0
M  V30 17 O 0.866 4.0 0.0 0
M  V30 18 C 0.0 2.5 0.0 0
M  V30 19 C -1.732 -0.4999 0.0 0
M  V30 20 C -0.866 -1.9999 0.0 0
M  V30 21 C 0.0 4.5 0.0 0
M  V30 22 C -1.732 -1.4999 0.0 0
M  V30 23 C 0.0 5.5 0.0 0
M  V30 24 C -0.866 6.0 0.0 0
M  V30 25 N -0.9705 6.9945 0.0 0
M  V30 26 C -1.7795 5.5932 0.0 0
M  V30 27 C -1.9487 7.2024 0.0 0
M  V30 28 O -2.4487 6.3364 0.0 0
M  V30 29 C -1.9874 4.6151 0.0 0
M  V30 30 C -2.3554 8.1159 0.0 0
M  V30 31 C -1.7676 8.9249 0.0 0
M  V30 32 C -3.3499 8.2205 0.0 0
M  V30 33 C -2.1743 9.8385 0.0 0
M  V30 34 C -3.7566 9.134 0.0 0
M  V30 35 C -3.1689 9.943 0.0 0
M  V30 END ATOM
M  V30 BEGIN BOND
M  V30 1 2 1 2
M  V30 2 1 2 3
M  V30 3 1 2 4
M  V30 4 1 4 5
M  V30 5 1 5 6
M  V30 6 1 5 7
M  V30 7 1 6 8
M  V30 8 1 7 9
M  V30 9 2 8 10
M  V30 10 1 8 11
M  V30 11 1 9 12
M  V30 12 1 10 13
M  V30 13 2 11 14
M  V30 14 2 12 15
M  V30 15 1 12 16
M  V30 16 1 13 17
M  V30 17 2 13 18
M  V30 18 1 15 19
M  V30 19 2 16 20
M  V30 20 1 17 21
M  V30 21 2 19 22
M  V30 22 1 21 23
M  V30 23 1 23 24
M  V30 24 1 24 25
M  V30 25 2 24 26
M  V30 26 2 25 27
M  V30 27 1 26 28
M  V30 28 1 26 29
M  V30 29 1 27 30
M  V30 30 2 30 31
M  V30 31 1 30 32
M  V30 32 1 31 33
M  V30 33 2 32 34
M  V30 34 2 33 35
M  V30 35 1 14 18
M  V30 36 1 20 22
M  V30 37 1 27 28
M  V30 38 1 34 35
M  V30 END BOND
M  V30 END CTAB
M  END
>  <Molecule ChEMBL ID>
CHEMBL246473

>  <Smiles>
Cc1oc(-c2ccccc2)nc1CCOc1cccc(CN(CCc2ccccc2)CC(=O)O)c1

>  <IC50_nM>
134

>  <Assay Description>
Displacement of fluorescein labeled ligand from PPARgamma receptor by fluorescence polarization assay

$$$$
CHEMBL370747
Actelion Java MolfileCreator 2.0

  0  0  0  0  0  0              0 V3000
M  V30 BEGIN CTAB
M  V30 COUNTS 40 44 0 0 0
M  V30 BEGIN ATOM
M  V30 1 F 4.8174 -4.7021 0.0 0
M  V30 2 C 5.0253 -3.7239 0.0 0
M  V30 3 F 4.0471 -3.516 0.0 0
M  V30 4 F 5.2332 -2.7458 0.0 0
M  V30 5 O 6.0034 -3.9318 0.0 0
M  V30 6 C 6.6726 -3.1887 0.0 0
M  V30 7 C 6.3636 -2.2376 0.0 0
M  V30 8 C 7.6507 -3.3966 0.0 0
M  V30 9 C 7.0327 -1.4945 0.0 0
M  V30 10 C 8.3198 -2.6534 0.0 0
M  V30 11 C 8.0108 -1.7024 0.0 0
M  V30 12 C 6.9282 -0.5 0.0 0
M  V30 13 N 8.5108 -0.8364 0.0 0
M  V30 14 C 7.8417 -0.0932 0.0 0
M  V30 15 C 6.0621 0.0 0.0 0
M  V30 16 C 9.5054 -0.7318 0.0 0
M  V30 17 C 8.0496 0.8848 0.0 0
M  V30 18 C 5.1961 -0.5 0.0 0
M  V30 19 N 10.0931 -1.5408 0.0 0
M  V30 20 C 9.9121 0.1816 0.0 0
M  V30 21 C 4.3301 0.0 0.0 0
M  V30 22 C 5.1961 -1.4999 0.0 0
M  V30 23 C 11.0877 -1.4363 0.0 0
M  V30 24 C 10.9066 0.2861 0.0 0
M  V30 25 C 3.4641 -0.5 0.0 0
M  V30 26 C 4.3301 -1.9999 0.0 0
M  V30 27 C 11.4944 -0.5228 0.0 0
M  V30 28 C 11.6754 -2.2453 0.0 0
M  V30 29 O 2.598 0.0 0.0 0
M  V30 30 C 3.4641 -1.4999 0.0 0
M  V30 31 C 12.4889 -0.4182 0.0 0
M  V30 32 C 12.67 -2.1408 0.0 0
M  V30 33 C 1.732 -0.5 0.0 0 CFG=2
M  V30 34 C 13.0767 -1.2273 0.0 0
M  V30 35 C 0.866 0.0 0.0 0
M  V30 36 C 1.732 -1.5 0.0 0
M  V30 37 O 14.0712 -1.1227 0.0 0
M  V30 38 O 0.866 1.0 0.0 0
M  V30 39 O 0.0 -0.5 0.0 0
M  V30 40 C 14.478 -0.2092 0.0 0
M  V30 END ATOM
M  V30 BEGIN BOND
M  V30 1 1 1 2
M  V30 2 1 2 3
M  V30 3 1 2 4
M  V30 4 1 2 5
M  V30 5 1 5 6
M  V30 6 2 6 7
M  V30 7 1 6 8
M  V30 8 1 7 9
M  V30 9 2 8 10
M  V30 10 2 9 11
M  V30 11 1 9 12
M  V30 12 1 11 13
M  V30 13 2 12 14
M  V30 14 1 12 15
M  V30 15 1 13 16
M  V30 16 1 14 17
M  V30 17 1 15 18
M  V30 18 2 16 19
M  V30 19 1 16 20
M  V30 20 2 18 21
M  V30 21 1 18 22
M  V30 22 1 19 23
M  V30 23 2 20 24
M  V30 24 1 21 25
M  V30 25 2 22 26
M  V30 26 1 23 27
M  V30 27 2 23 28
M  V30 28 1 25 29
M  V30 29 2 25 30
M  V30 30 2 27 31
M  V30 31 1 28 32
M  V30 32 1 29 33
M  V30 33 1 31 34
M  V30 34 1 33 35
M  V30 35 1 33 36 CFG=1
M  V30 36 1 34 37
M  V30 37 2 35 38
M  V30 38 1 35 39
M  V30 39 1 37 40
M  V30 40 1 10 11
M  V30 41 1 13 14
M  V30 42 1 24 27
M  V30 43 1 26 30
M  V30 44 2 32 34
M  V30 END BOND
M  V30 BEGIN COLLECTION
M  V30 MDLV30/STEABS ATOMS=(1 33)
M  V30 END COLLECTION
M  V30 END CTAB
M  END
>  <Molecule ChEMBL ID>
CHEMBL370747

>  <Smiles>
COc1ccc2nc(-n3c(C)c(Cc4cccc(O[C@@H](C)C(=O)O)c4)c4cc(OC(F)(F)F)ccc43)ccc2c1

>  <IC50_nM>
135

>  <Assay Description>
Inhibition of human peroxisome proliferator activated receptor gamma binding

$$$$
CHEMBL265364
Actelion Java MolfileCreator 2.0

  0  0  0  0  0  0              0 V3000
M  V30 BEGIN CTAB
M  V30 COUNTS 32 35 0 0 0
M  V30 BEGIN ATOM
M  V30 1 F 13.5637 0.6719 0.0 0
M  V30 2 C 12.6502 1.0786 0.0 0
M  V30 3 C 12.5456 2.0731 0.0 0
M  V30 4 C 11.8411 0.4908 0.0 0
M  V30 5 C 11.6321 2.4799 0.0 0
M  V30 6 C 13.3546 2.6609 0.0 0
M  V30 7 C 10.9276 0.8975 0.0 0
M  V30 8 C 10.8231 1.8921 0.0 0
M  V30 9 C 9.9095 2.2988 0.0 0
M  V30 10 O 9.7016 3.277 0.0 0
M  V30 11 N 9.0435 1.7988 0.0 0
M  V30 12 C 8.7071 3.3815 0.0 0
M  V30 13 C 8.3003 2.4679 0.0 0
M  V30 14 C 8.2071 4.2475 0.0 0
M  V30 15 C 7.3222 2.26 0.0 0
M  V30 16 N 7.0132 1.309 0.0 0
M  V30 17 C 6.0621 0.9999 0.0 0
M  V30 18 C 7.601 0.5 0.0 0
M  V30 19 C 6.0621 0.0 0.0 0
M  V30 20 C 5.1961 1.4999 0.0 0
M  V30 21 C 7.0132 -0.309 0.0 0
M  V30 22 C 5.1961 -0.5 0.0 0
M  V30 23 C 4.3301 0.9999 0.0 0
M  V30 24 C 4.3301 0.0 0.0 0
M  V30 25 C 3.4641 -0.5 0.0 0
M  V30 26 C 2.598 0.0 0.0 0 CFG=2
M  V30 27 O 1.732 -0.5 0.0 0
M  V30 28 C 2.598 1.0 0.0 0
M  V30 29 C 0.866 0.0 0.0 0
M  V30 30 O 3.4641 1.4999 0.0 0
M  V30 31 O 1.732 1.5 0.0 0
M  V30 32 C 0.0 -0.5 0.0 0
M  V30 END ATOM
M  V30 BEGIN BOND
M  V30 1 1 1 2
M  V30 2 2 2 3
M  V30 3 1 2 4
M  V30 4 1 3 5
M  V30 5 1 3 6
M  V30 6 2 4 7
M  V30 7 2 5 8
M  V30 8 1 8 9
M  V30 9 1 9 10
M  V30 10 2 9 11
M  V30 11 1 10 12
M  V30 12 1 11 13
M  V30 13 1 12 14
M  V30 14 1 13 15
M  V30 15 1 15 16
M  V30 16 1 16 17
M  V30 17 1 16 18
M  V30 18 2 17 19
M  V30 19 1 17 20
M  V30 20 2 18 21
M  V30 21 1 19 22
M  V30 22 2 20 23
M  V30 23 2 22 24
M  V30 24 1 24 25
M  V30 25 1 25 26
M  V30 26 1 26 27 CFG=3
M  V30 27 1 26 28
M  V30 28 1 27 29
M  V30 29 2 28 30
M  V30 30 1 28 31
M  V30 31 1 29 32
M  V30 32 1 7 8
M  V30 33 2 12 13
M  V30 34 1 19 21
M  V30 35 1 23 24
M  V30 END BOND
M  V30 BEGIN COLLECTION
M  V30 MDLV30/STERAC1 ATOMS=(1 26)
M  V30 END COLLECTION
M  V30 END CTAB
M  END
>  <Molecule ChEMBL ID>
CHEMBL265364

>  <Smiles>
CCOC(Cc1ccc2c(ccn2Cc2nc(-c3ccc(F)c(C)c3)oc2C)c1)C(=O)O

>  <IC50_nM>
135

>  <Assay Description>
Binding affinity to PPARgamma by radio ligand binding assay

$$$$
CHEMBL2037081
Actelion Java MolfileCreator 2.0

  0  0  0  0  0  0              0 V3000
M  V30 BEGIN CTAB
M  V30 COUNTS 35 38 0 0 0
M  V30 BEGIN ATOM
M  V30 1 F 13.9704 1.5854 0.0 0
M  V30 2 C 13.5637 0.6719 0.0 0
M  V30 3 F 14.4772 0.2651 0.0 0
M  V30 4 F 13.157 -0.2416 0.0 0
M  V30 5 C 12.6502 1.0786 0.0 0
M  V30 6 C 12.5456 2.0731 0.0 0
M  V30 7 C 11.8411 0.4908 0.0 0
M  V30 8 C 11.6321 2.4799 0.0 0
M  V30 9 C 10.9276 0.8975 0.0 0
M  V30 10 C 10.8231 1.8921 0.0 0
M  V30 11 C 9.9095 2.2988 0.0 0
M  V30 12 O 9.7016 3.277 0.0 0
M  V30 13 N 9.0435 1.7988 0.0 0
M  V30 14 C 8.7071 3.3815 0.0 0
M  V30 15 C 8.3003 2.4679 0.0 0
M  V30 16 C 8.2071 4.2475 0.0 0
M  V30 17 C 7.3222 2.26 0.0 0
M  V30 18 N 7.0132 1.309 0.0 0
M  V30 19 C 6.0621 0.9999 0.0 0
M  V30 20 C 7.601 0.5 0.0 0
M  V30 21 C 6.0621 0.0 0.0 0
M  V30 22 C 5.1961 1.4999 0.0 0
M  V30 23 C 7.0132 -0.309 0.0 0
M  V30 24 C 5.1961 -0.5 0.0 0
M  V30 25 C 4.3301 0.9999 0.0 0
M  V30 26 C 4.3301 0.0 0.0 0
M  V30 27 C 3.4641 -0.5 0.0 0
M  V30 28 C 2.598 0.0 0.0 0 CFG=1
M  V30 29 O 1.732 -0.5 0.0 0
M  V30 30 C 2.598 1.0 0.0 0
M  V30 31 C 0.866 0.0 0.0 0
M  V30 32 O 3.4641 1.4999 0.0 0
M  V30 33 O 1.732 1.5 0.0 0
M  V30 34 C 0.866 1.0 0.0 0
M  V30 35 C 0.0 -0.5 0.0 0
M  V30 END ATOM
M  V30 BEGIN BOND
M  V30 1 1 1 2
M  V30 2 1 2 3
M  V30 3 1 2 4
M  V30 4 1 2 5
M  V30 5 2 5 6
M  V30 6 1 5 7
M  V30 7 1 6 8
M  V30 8 2 7 9
M  V30 9 2 8 10
M  V30 10 1 10 11
M  V30 11 1 11 12
M  V30 12 2 11 13
M  V30 13 1 12 14
M  V30 14 1 13 15
M  V30 15 1 14 16
M  V30 16 1 15 17
M  V30 17 1 17 18
M  V30 18 1 18 19
M  V30 19 1 18 20
M  V30 20 2 19 21
M  V30 21 1 19 22
M  V30 22 2 20 23
M  V30 23 1 21 24
M  V30 24 2 22 25
M  V30 25 2 24 26
M  V30 26 1 26 27
M  V30 27 1 27 28
M  V30 28 1 28 29 CFG=1
M  V30 29 1 28 30
M  V30 30 1 29 31
M  V30 31 2 30 32
M  V30 32 1 30 33
M  V30 33 1 31 34
M  V30 34 1 31 35
M  V30 35 1 9 10
M  V30 36 2 14 15
M  V30 37 1 21 23
M  V30 38 1 25 26
M  V30 END BOND
M  V30 BEGIN COLLECTION
M  V30 MDLV30/STEABS ATOMS=(1 28)
M  V30 END COLLECTION
M  V30 END CTAB
M  END
>  <Molecule ChEMBL ID>
CHEMBL2037081

>  <Smiles>
Cc1oc(-c2ccc(C(F)(F)F)cc2)nc1Cn1ccc2cc(C[C@@H](OC(C)C)C(=O)O)ccc21

>  <IC50_nM>
139

>  <Assay Description>
Agonist activity at PPARgamma

$$$$
CHEMBL210017
Actelion Java MolfileCreator 2.0

  0  0  0  0  0  0              0 V3000
M  V30 BEGIN CTAB
M  V30 COUNTS 35 38 0 0 0
M  V30 BEGIN ATOM
M  V30 1 F 13.9704 1.5854 0.0 0
M  V30 2 C 13.5637 0.6719 0.0 0
M  V30 3 F 14.4772 0.2651 0.0 0
M  V30 4 F 13.157 -0.2416 0.0 0
M  V30 5 C 12.6502 1.0786 0.0 0
M  V30 6 C 12.5456 2.0731 0.0 0
M  V30 7 C 11.8411 0.4908 0.0 0
M  V30 8 C 11.6321 2.4799 0.0 0
M  V30 9 C 10.9276 0.8975 0.0 0
M  V30 10 C 10.8231 1.8921 0.0 0
M  V30 11 C 9.9095 2.2988 0.0 0
M  V30 12 O 9.7016 3.277 0.0 0
M  V30 13 N 9.0435 1.7988 0.0 0
M  V30 14 C 8.7071 3.3815 0.0 0
M  V30 15 C 8.3003 2.4679 0.0 0
M  V30 16 C 8.2071 4.2475 0.0 0
M  V30 17 C 7.3222 2.26 0.0 0
M  V30 18 N 7.0132 1.309 0.0 0
M  V30 19 C 6.0621 0.9999 0.0 0
M  V30 20 C 7.601 0.5 0.0 0
M  V30 21 C 6.0621 0.0 0.0 0
M  V30 22 C 5.1961 1.4999 0.0 0
M  V30 23 C 7.0132 -0.309 0.0 0
M  V30 24 C 5.1961 -0.5 0.0 0
M  V30 25 C 4.3301 0.9999 0.0 0
M  V30 26 C 4.3301 0.0 0.0 0
M  V30 27 C 3.4641 -0.5 0.0 0
M  V30 28 C 2.598 0.0 0.0 0 CFG=2
M  V30 29 O 1.732 -0.5 0.0 0
M  V30 30 C 2.598 1.0 0.0 0
M  V30 31 C 0.866 0.0 0.0 0
M  V30 32 O 3.4641 1.4999 0.0 0
M  V30 33 O 1.732 1.5 0.0 0
M  V30 34 C 0.866 1.0 0.0 0
M  V30 35 C 0.0 -0.5 0.0 0
M  V30 END ATOM
M  V30 BEGIN BOND
M  V30 1 1 1 2
M  V30 2 1 2 3
M  V30 3 1 2 4
M  V30 4 1 2 5
M  V30 5 2 5 6
M  V30 6 1 5 7
M  V30 7 1 6 8
M  V30 8 2 7 9
M  V30 9 2 8 10
M  V30 10 1 10 11
M  V30 11 1 11 12
M  V30 12 2 11 13
M  V30 13 1 12 14
M  V30 14 1 13 15
M  V30 15 1 14 16
M  V30 16 1 15 17
M  V30 17 1 17 18
M  V30 18 1 18 19
M  V30 19 1 18 20
M  V30 20 2 19 21
M  V30 21 1 19 22
M  V30 22 2 20 23
M  V30 23 1 21 24
M  V30 24 2 22 25
M  V30 25 2 24 26
M  V30 26 1 26 27
M  V30 27 1 27 28
M  V30 28 1 28 29 CFG=3
M  V30 29 1 28 30
M  V30 30 1 29 31
M  V30 31 2 30 32
M  V30 32 1 30 33
M  V30 33 1 31 34
M  V30 34 1 31 35
M  V30 35 1 9 10
M  V30 36 2 14 15
M  V30 37 1 21 23
M  V30 38 1 25 26
M  V30 END BOND
M  V30 BEGIN COLLECTION
M  V30 MDLV30/STERAC1 ATOMS=(1 28)
M  V30 END COLLECTION
M  V30 END CTAB
M  END
>  <Molecule ChEMBL ID>
CHEMBL210017

>  <Smiles>
Cc1oc(-c2ccc(C(F)(F)F)cc2)nc1Cn1ccc2cc(CC(OC(C)C)C(=O)O)ccc21

>  <IC50_nM>
139

>  <Assay Description>
Binding affinity to PPARgamma by radio ligand binding assay

$$$$
CHEMBL3398445
Actelion Java MolfileCreator 2.0

  0  0  0  0  0  0              0 V3000
M  V30 BEGIN CTAB
M  V30 COUNTS 36 40 0 0 0
M  V30 BEGIN ATOM
M  V30 1 O 9.0007 1.1939 0.0 0
M  V30 2 C 8.0496 0.8848 0.0 0
M  V30 3 O 7.3065 1.554 0.0 0
M  V30 4 C 7.8417 -0.0932 0.0 0 CFG=1
M  V30 5 C 6.9282 -0.5 0.0 0 CFG=2
M  V30 6 C 8.5108 -0.8364 0.0 0
M  V30 7 C 7.0327 -1.4945 0.0 0
M  V30 8 C 6.0621 0.0 0.0 0
M  V30 9 N 8.0108 -1.7024 0.0 0
M  V30 10 C 5.1961 -0.5 0.0 0
M  V30 11 C 8.4176 -2.6159 0.0 0
M  V30 12 C 4.3301 0.0 0.0 0
M  V30 13 C 5.1961 -1.4999 0.0 0
M  V30 14 C 7.8298 -3.4249 0.0 0
M  V30 15 C 9.4121 -2.7205 0.0 0
M  V30 16 C 3.4641 -0.5 0.0 0
M  V30 17 C 4.3301 -1.9999 0.0 0
M  V30 18 C 8.2365 -4.3385 0.0 0
M  V30 19 C 9.8188 -3.634 0.0 0
M  V30 20 O 2.598 0.0 0.0 0
M  V30 21 C 3.4641 -1.4999 0.0 0
M  V30 22 C 9.231 -4.443 0.0 0
M  V30 23 C 1.732 -0.5 0.0 0
M  V30 24 C 0.866 0.0 0.0 0
M  V30 25 C 0.0 -0.5 0.0 0
M  V30 26 N -0.9135 -0.0932 0.0 0
M  V30 27 C -0.1045 -1.4945 0.0 0
M  V30 28 C -1.5826 -0.8364 0.0 0
M  V30 29 O -1.0826 -1.7024 0.0 0
M  V30 30 C 0.6386 -2.1636 0.0 0
M  V30 31 C -2.5771 -0.7318 0.0 0
M  V30 32 C -2.9839 0.1816 0.0 0
M  V30 33 C -3.1649 -1.5408 0.0 0
M  V30 34 C -3.9784 0.2861 0.0 0
M  V30 35 C -4.1595 -1.4363 0.0 0
M  V30 36 C -4.5662 -0.5228 0.0 0
M  V30 END ATOM
M  V30 BEGIN BOND
M  V30 1 2 1 2
M  V30 2 1 2 3
M  V30 3 1 4 2 CFG=3
M  V30 4 1 4 5
M  V30 5 1 4 6
M  V30 6 1 5 7
M  V30 7 1 5 8 CFG=3
M  V30 8 1 6 9
M  V30 9 1 8 10
M  V30 10 1 9 11
M  V30 11 2 10 12
M  V30 12 1 10 13
M  V30 13 2 11 14
M  V30 14 1 11 15
M  V30 15 1 12 16
M  V30 16 2 13 17
M  V30 17 1 14 18
M  V30 18 2 15 19
M  V30 19 1 16 20
M  V30 20 2 16 21
M  V30 21 2 18 22
M  V30 22 1 20 23
M  V30 23 1 23 24
M  V30 24 1 24 25
M  V30 25 1 25 26
M  V30 26 2 25 27
M  V30 27 2 26 28
M  V30 28 1 27 29
M  V30 29 1 27 30
M  V30 30 1 28 31
M  V30 31 2 31 32
M  V30 32 1 31 33
M  V30 33 1 32 34
M  V30 34 2 33 35
M  V30 35 2 34 36
M  V30 36 1 7 9
M  V30 37 1 17 21
M  V30 38 1 19 22
M  V30 39 1 28 29
M  V30 40 1 35 36
M  V30 END BOND
M  V30 BEGIN COLLECTION
M  V30 MDLV30/STEABS ATOMS=(2 4 5)
M  V30 END COLLECTION
M  V30 END CTAB
M  END
>  <Molecule ChEMBL ID>
CHEMBL3398445

>  <Smiles>
Cc1oc(-c2ccccc2)nc1CCOc1cccc(C[C@H]2CN(c3ccccc3)C[C@H]2C(=O)O)c1

>  <IC50_nM>
140

>  <Assay Description>
Binding affinity to PPARgamma (unknown origin) using fluorescein-tagged dual PPARalpha/gamma activator by homogeneous fluorescence polarization binding assay

$$$$
CHEMBL473952
Actelion Java MolfileCreator 2.0

  0  0  0  0  0  0              0 V3000
M  V30 BEGIN CTAB
M  V30 COUNTS 36 40 0 0 0
M  V30 BEGIN ATOM
M  V30 1 O 9.0007 1.1939 0.0 0
M  V30 2 C 8.0496 0.8848 0.0 0
M  V30 3 O 7.3065 1.554 0.0 0
M  V30 4 C 7.8417 -0.0932 0.0 0
M  V30 5 C 6.9282 -0.5 0.0 0
M  V30 6 C 8.5108 -0.8364 0.0 0
M  V30 7 N 7.0327 -1.4945 0.0 0
M  V30 8 C 6.0621 0.0 0.0 0
M  V30 9 N 8.0108 -1.7024 0.0 0
M  V30 10 C 5.1961 -0.5 0.0 0
M  V30 11 C 8.4176 -2.6159 0.0 0
M  V30 12 C 4.3301 0.0 0.0 0
M  V30 13 C 5.1961 -1.4999 0.0 0
M  V30 14 C 7.8298 -3.4249 0.0 0
M  V30 15 C 9.4121 -2.7205 0.0 0
M  V30 16 C 3.4641 -0.5 0.0 0
M  V30 17 C 4.3301 -1.9999 0.0 0
M  V30 18 C 8.2365 -4.3385 0.0 0
M  V30 19 C 9.8188 -3.634 0.0 0
M  V30 20 O 2.598 0.0 0.0 0
M  V30 21 C 3.4641 -1.4999 0.0 0
M  V30 22 C 9.231 -4.443 0.0 0
M  V30 23 C 1.732 -0.5 0.0 0
M  V30 24 C 0.866 0.0 0.0 0
M  V30 25 C 0.0 -0.5 0.0 0
M  V30 26 N -0.9135 -0.0932 0.0 0
M  V30 27 C -0.1045 -1.4945 0.0 0
M  V30 28 C -1.5826 -0.8364 0.0 0
M  V30 29 O -1.0826 -1.7024 0.0 0
M  V30 30 C 0.6386 -2.1636 0.0 0
M  V30 31 C -2.5771 -0.7318 0.0 0
M  V30 32 C -2.9839 0.1816 0.0 0
M  V30 33 C -3.1649 -1.5408 0.0 0
M  V30 34 C -3.9784 0.2861 0.0 0
M  V30 35 C -4.1595 -1.4363 0.0 0
M  V30 36 C -4.5662 -0.5228 0.0 0
M  V30 END ATOM
M  V30 BEGIN BOND
M  V30 1 2 1 2
M  V30 2 1 2 3
M  V30 3 1 2 4
M  V30 4 1 4 5
M  V30 5 2 4 6
M  V30 6 2 5 7
M  V30 7 1 5 8
M  V30 8 1 6 9
M  V30 9 1 8 10
M  V30 10 1 9 11
M  V30 11 2 10 12
M  V30 12 1 10 13
M  V30 13 2 11 14
M  V30 14 1 11 15
M  V30 15 1 12 16
M  V30 16 2 13 17
M  V30 17 1 14 18
M  V30 18 2 15 19
M  V30 19 1 16 20
M  V30 20 2 16 21
M  V30 21 2 18 22
M  V30 22 1 20 23
M  V30 23 1 23 24
M  V30 24 1 24 25
M  V30 25 1 25 26
M  V30 26 2 25 27
M  V30 27 2 26 28
M  V30 28 1 27 29
M  V30 29 1 27 30
M  V30 30 1 28 31
M  V30 31 2 31 32
M  V30 32 1 31 33
M  V30 33 1 32 34
M  V30 34 2 33 35
M  V30 35 2 34 36
M  V30 36 1 7 9
M  V30 37 1 17 21
M  V30 38 1 19 22
M  V30 39 1 28 29
M  V30 40 1 35 36
M  V30 END BOND
M  V30 END CTAB
M  END
>  <Molecule ChEMBL ID>
CHEMBL473952

>  <Smiles>
Cc1oc(-c2ccccc2)nc1CCOc1cccc(Cc2nn(-c3ccccc3)cc2C(=O)O)c1

>  <IC50_nM>
140

>  <Assay Description>
Binding affinity to PPARgamma by fluorescence polarization assay

$$$$
CHEMBL23296
Actelion Java MolfileCreator 2.0

  0  0  0  0  0  0              0 V3000
M  V30 BEGIN CTAB
M  V30 COUNTS 32 34 0 0 0
M  V30 BEGIN ATOM
M  V30 1 Cl 6.0621 1.0 0.0 0
M  V30 2 C 6.0621 0.0 0.0 0
M  V30 3 C 5.1961 -0.5 0.0 0
M  V30 4 C 6.9282 -0.4999 0.0 0
M  V30 5 S 4.3301 0.0 0.0 0
M  V30 6 C 5.1961 -1.4999 0.0 0
M  V30 7 C 6.9282 -1.4999 0.0 0
M  V30 8 C 3.4641 -0.5 0.0 0
M  V30 9 C 6.0621 -1.9999 0.0 0
M  V30 10 C 7.7942 -1.9999 0.0 0
M  V30 11 C 2.598 0.0 0.0 0
M  V30 12 C 7.7942 -2.9999 0.0 0
M  V30 13 C 1.732 -0.5 0.0 0
M  V30 14 O 6.9282 -3.4999 0.0 0
M  V30 15 O 8.6602 -3.4999 0.0 0
M  V30 16 O 0.866 0.0 0.0 0
M  V30 17 C 0.0 -0.5 0.0 0
M  V30 18 C -0.866 0.0 0.0 0
M  V30 19 C 0.0 -1.5 0.0 0
M  V30 20 C -1.732 -0.4999 0.0 0
M  V30 21 C -0.866 1.0 0.0 0
M  V30 22 C -0.866 -1.9999 0.0 0
M  V30 23 O -2.6831 -0.1909 0.0 0
M  V30 24 C -1.732 -1.4999 0.0 0
M  V30 25 C 0.0 1.5 0.0 0
M  V30 26 N -3.2708 -0.9999 0.0 0
M  V30 27 C -2.6831 -1.809 0.0 0
M  V30 28 C 0.0 2.5 0.0 0
M  V30 29 C -2.9921 -2.76 0.0 0
M  V30 30 F -2.041 -3.069 0.0 0
M  V30 31 F -3.3011 -3.7111 0.0 0
M  V30 32 F -3.9431 -2.451 0.0 0
M  V30 END ATOM
M  V30 BEGIN BOND
M  V30 1 1 1 2
M  V30 2 2 2 3
M  V30 3 1 2 4
M  V30 4 1 3 5
M  V30 5 1 3 6
M  V30 6 2 4 7
M  V30 7 1 5 8
M  V30 8 2 6 9
M  V30 9 1 7 10
M  V30 10 1 8 11
M  V30 11 1 10 12
M  V30 12 1 11 13
M  V30 13 2 12 14
M  V30 14 1 12 15
M  V30 15 1 13 16
M  V30 16 1 16 17
M  V30 17 2 17 18
M  V30 18 1 17 19
M  V30 19 1 18 20
M  V30 20 1 18 21
M  V30 21 2 19 22
M  V30 22 1 20 23
M  V30 23 2 20 24
M  V30 24 1 21 25
M  V30 25 1 23 26
M  V30 26 1 24 27
M  V30 27 1 25 28
M  V30 28 1 27 29
M  V30 29 1 29 30
M  V30 30 1 29 31
M  V30 31 1 29 32
M  V30 32 1 7 9
M  V30 33 1 22 24
M  V30 34 2 26 27
M  V30 END BOND
M  V30 END CTAB
M  END
>  <Molecule ChEMBL ID>
CHEMBL23296

>  <Smiles>
CCCc1c(OCCCSc2ccc(CC(=O)O)cc2Cl)ccc2c(C(F)(F)F)noc12

>  <IC50_nM>
140

>  <Assay Description>
In vitro binding affinity for human PPAR gamma in SPA

$$$$
CHEMBL436337
Actelion Java MolfileCreator 2.0

  0  0  0  0  0  0              0 V3000
M  V30 BEGIN CTAB
M  V30 COUNTS 34 37 0 0 0
M  V30 BEGIN ATOM
M  V30 1 S 3.8971 0.0 0.0 0
M  V30 2 O 4.6471 1.299 0.0 0
M  V30 3 O 3.1471 1.299 0.0 0
M  V30 4 N 2.598 -0.75 0.0 0
M  V30 5 C 5.1961 -0.75 0.0 0
M  V30 6 C 1.299 0.0 0.0 0
M  V30 7 C 5.1961 -2.25 0.0 0
M  V30 8 C 6.4951 0.0 0.0 0
M  V30 9 O 1.299 1.5 0.0 0
M  V30 10 C 0.0 -0.75 0.0 0
M  V30 11 C 6.4951 -3.0 0.0 0
M  V30 12 C 7.7942 -0.75 0.0 0
M  V30 13 N -1.3703 -0.1398 0.0 0
M  V30 14 C -0.1567 -2.2417 0.0 0
M  V30 15 C 7.7942 -2.25 0.0 0
M  V30 16 C 6.4951 -4.5 0.0 0
M  V30 17 C -2.374 -1.2546 0.0 0
M  V30 18 C -1.6821 1.3273 0.0 0
M  V30 19 C -1.624 -2.5536 0.0 0
M  V30 20 F 7.9952 -4.5 0.0 0
M  V30 21 F 6.4951 -6.0 0.0 0
M  V30 22 F 4.9951 -4.5 0.0 0
M  V30 23 C -3.874 -1.2546 0.0 0
M  V30 24 C -3.1087 1.7908 0.0 0
M  V30 25 C -2.374 -3.8526 0.0 0
M  V30 26 C -4.624 -2.5536 0.0 0
M  V30 27 C -3.4206 3.258 0.0 0
M  V30 28 C -4.2234 0.7871 0.0 0
M  V30 29 C -3.874 -3.8526 0.0 0
M  V30 30 C -4.8472 3.7216 0.0 0
M  V30 31 C -5.65 1.2506 0.0 0
M  V30 32 O -5.159 5.1888 0.0 0
M  V30 33 C -5.9619 2.7179 0.0 0
M  V30 34 C -6.5856 5.6523 0.0 0
M  V30 END ATOM
M  V30 BEGIN BOND
M  V30 1 2 1 2
M  V30 2 2 1 3
M  V30 3 1 1 4
M  V30 4 1 1 5
M  V30 5 1 4 6
M  V30 6 2 5 7
M  V30 7 1 5 8
M  V30 8 2 6 9
M  V30 9 1 6 10
M  V30 10 1 7 11
M  V30 11 2 8 12
M  V30 12 1 10 13
M  V30 13 2 10 14
M  V30 14 2 11 15
M  V30 15 1 11 16
M  V30 16 1 13 17
M  V30 17 1 13 18
M  V30 18 1 14 19
M  V30 19 1 16 20
M  V30 20 1 16 21
M  V30 21 1 16 22
M  V30 22 1 17 23
M  V30 23 1 18 24
M  V30 24 1 19 25
M  V30 25 2 23 26
M  V30 26 2 24 27
M  V30 27 1 24 28
M  V30 28 2 25 29
M  V30 29 1 27 30
M  V30 30 2 28 31
M  V30 31 1 30 32
M  V30 32 2 30 33
M  V30 33 1 32 34
M  V30 34 1 12 15
M  V30 35 2 17 19
M  V30 36 1 26 29
M  V30 37 1 31 33
M  V30 END BOND
M  V30 END CTAB
M  END
>  <Molecule ChEMBL ID>
CHEMBL436337

>  <Smiles>
COc1cccc(Cn2c(C(=O)NS(=O)(=O)c3cccc(C(F)(F)F)c3)cc3ccccc32)c1

>  <IC50_nM>
140

>  <Assay Description>
Displacement of Fluormone from PPAR gamma

$$$$
CHEMBL23296
Actelion Java MolfileCreator 2.0

  0  0  0  0  0  0              0 V3000
M  V30 BEGIN CTAB
M  V30 COUNTS 32 34 0 0 0
M  V30 BEGIN ATOM
M  V30 1 Cl 6.0621 1.0 0.0 0
M  V30 2 C 6.0621 0.0 0.0 0
M  V30 3 C 5.1961 -0.5 0.0 0
M  V30 4 C 6.9282 -0.4999 0.0 0
M  V30 5 S 4.3301 0.0 0.0 0
M  V30 6 C 5.1961 -1.4999 0.0 0
M  V30 7 C 6.9282 -1.4999 0.0 0
M  V30 8 C 3.4641 -0.5 0.0 0
M  V30 9 C 6.0621 -1.9999 0.0 0
M  V30 10 C 7.7942 -1.9999 0.0 0
M  V30 11 C 2.598 0.0 0.0 0
M  V30 12 C 7.7942 -2.9999 0.0 0
M  V30 13 C 1.732 -0.5 0.0 0
M  V30 14 O 6.9282 -3.4999 0.0 0
M  V30 15 O 8.6602 -3.4999 0.0 0
M  V30 16 O 0.866 0.0 0.0 0
M  V30 17 C 0.0 -0.5 0.0 0
M  V30 18 C -0.866 0.0 0.0 0
M  V30 19 C 0.0 -1.5 0.0 0
M  V30 20 C -1.732 -0.4999 0.0 0
M  V30 21 C -0.866 1.0 0.0 0
M  V30 22 C -0.866 -1.9999 0.0 0
M  V30 23 O -2.6831 -0.1909 0.0 0
M  V30 24 C -1.732 -1.4999 0.0 0
M  V30 25 C 0.0 1.5 0.0 0
M  V30 26 N -3.2708 -0.9999 0.0 0
M  V30 27 C -2.6831 -1.809 0.0 0
M  V30 28 C 0.0 2.5 0.0 0
M  V30 29 C -2.9921 -2.76 0.0 0
M  V30 30 F -2.041 -3.069 0.0 0
M  V30 31 F -3.3011 -3.7111 0.0 0
M  V30 32 F -3.9431 -2.451 0.0 0
M  V30 END ATOM
M  V30 BEGIN BOND
M  V30 1 1 1 2
M  V30 2 2 2 3
M  V30 3 1 2 4
M  V30 4 1 3 5
M  V30 5 1 3 6
M  V30 6 2 4 7
M  V30 7 1 5 8
M  V30 8 2 6 9
M  V30 9 1 7 10
M  V30 10 1 8 11
M  V30 11 1 10 12
M  V30 12 1 11 13
M  V30 13 2 12 14
M  V30 14 1 12 15
M  V30 15 1 13 16
M  V30 16 1 16 17
M  V30 17 2 17 18
M  V30 18 1 17 19
M  V30 19 1 18 20
M  V30 20 1 18 21
M  V30 21 2 19 22
M  V30 22 1 20 23
M  V30 23 2 20 24
M  V30 24 1 21 25
M  V30 25 1 23 26
M  V30 26 1 24 27
M  V30 27 1 25 28
M  V30 28 1 27 29
M  V30 29 1 29 30
M  V30 30 1 29 31
M  V30 31 1 29 32
M  V30 32 1 7 9
M  V30 33 1 22 24
M  V30 34 2 26 27
M  V30 END BOND
M  V30 END CTAB
M  END
>  <Molecule ChEMBL ID>
CHEMBL23296

>  <Smiles>
CCCc1c(OCCCSc2ccc(CC(=O)O)cc2Cl)ccc2c(C(F)(F)F)noc12

>  <IC50_nM>
140

>  <Assay Description>
Displacement of radio-labeled full agonist from PPARgamma receptor

$$$$
CHEMBL1089176
Actelion Java MolfileCreator 2.0

  0  0  0  0  0  0              0 V3000
M  V30 BEGIN CTAB
M  V30 COUNTS 38 41 0 0 0
M  V30 BEGIN ATOM
M  V30 1 Cl 17.0548 -3.5349 0.0 0
M  V30 2 C 16.4447 -2.1646 0.0 0
M  V30 3 C 17.3263 -0.951 0.0 0
M  V30 4 C 14.9529 -2.0078 0.0 0
M  V30 5 C 16.7162 0.4192 0.0 0
M  V30 6 C 14.3428 -0.6374 0.0 0
M  V30 7 C 15.2245 0.576 0.0 0
M  V30 8 C 14.6143 1.9463 0.0 0
M  V30 9 O 15.3643 3.2453 0.0 0
M  V30 10 N 13.1471 2.2582 0.0 0
M  V30 11 C 14.3606 4.3601 0.0 0
M  V30 12 C 12.9903 3.75 0.0 0
M  V30 13 C 14.6725 5.8273 0.0 0
M  V30 14 C 11.6913 4.5 0.0 0
M  V30 15 C 10.3923 3.75 0.0 0
M  V30 16 O 9.0932 4.5 0.0 0
M  V30 17 C 7.7942 3.75 0.0 0
M  V30 18 C 6.4951 4.5 0.0 0
M  V30 19 C 7.7942 2.25 0.0 0
M  V30 20 C 5.1961 3.75 0.0 0
M  V30 21 C 6.4951 1.5 0.0 0
M  V30 22 C 5.1961 2.25 0.0 0
M  V30 23 C 3.8971 1.5 0.0 0
M  V30 24 N 3.8971 0.0 0.0 0
M  V30 25 C 5.1961 -0.75 0.0 0
M  V30 26 C 2.598 -0.75 0.0 0
M  V30 27 O 5.1961 -2.25 0.0 0
M  V30 28 O 6.4951 0.0 0.0 0
M  V30 29 C 1.299 0.0 0.0 0
M  V30 30 C 7.7942 -0.75 0.0 0
M  V30 31 O 1.299 1.5 0.0 0
M  V30 32 O 0.0 -0.75 0.0 0
M  V30 33 C 7.7942 -2.25 0.0 0
M  V30 34 C 9.0932 0.0 0.0 0
M  V30 35 C 9.0932 -3.0 0.0 0
M  V30 36 C 10.3923 -0.75 0.0 0
M  V30 37 C 10.3923 -2.25 0.0 0
M  V30 38 C 11.6913 -3.0 0.0 0
M  V30 END ATOM
M  V30 BEGIN BOND
M  V30 1 1 1 2
M  V30 2 2 2 3
M  V30 3 1 2 4
M  V30 4 1 3 5
M  V30 5 2 4 6
M  V30 6 2 5 7
M  V30 7 1 7 8
M  V30 8 1 8 9
M  V30 9 2 8 10
M  V30 10 1 9 11
M  V30 11 1 10 12
M  V30 12 1 11 13
M  V30 13 1 12 14
M  V30 14 1 14 15
M  V30 15 1 15 16
M  V30 16 1 16 17
M  V30 17 2 17 18
M  V30 18 1 17 19
M  V30 19 1 18 20
M  V30 20 2 19 21
M  V30 21 2 20 22
M  V30 22 1 22 23
M  V30 23 1 23 24
M  V30 24 1 24 25
M  V30 25 1 24 26
M  V30 26 2 25 27
M  V30 27 1 25 28
M  V30 28 1 26 29
M  V30 29 1 28 30
M  V30 30 2 29 31
M  V30 31 1 29 32
M  V30 32 2 30 33
M  V30 33 1 30 34
M  V30 34 1 33 35
M  V30 35 2 34 36
M  V30 36 2 35 37
M  V30 37 1 37 38
M  V30 38 1 6 7
M  V30 39 2 11 12
M  V30 40 1 21 22
M  V30 41 1 36 37
M  V30 END BOND
M  V30 END CTAB
M  END
>  <Molecule ChEMBL ID>
CHEMBL1089176

>  <Smiles>
Cc1ccc(OC(=O)N(CC(=O)O)Cc2ccc(OCCc3nc(-c4ccc(Cl)cc4)oc3C)cc2)cc1

>  <IC50_nM>
141.4

>  <Assay Description>
Binding affinity to human His-tagged PPARgamma LBD (Q203-Y477) expressed in Escherichia coli BL21 (DE3) by fluorescence polarization assay

$$$$
CHEMBL3678142
Actelion Java MolfileCreator 2.0

  0  0  0  0  0  0              0 V3000
M  V30 BEGIN CTAB
M  V30 COUNTS 40 43 0 0 0
M  V30 BEGIN ATOM
M  V30 1 Cl 4.3301 0.9999 0.0 0
M  V30 2 C 4.3301 0.0 0.0 0
M  V30 3 C 3.4641 -0.5 0.0 0
M  V30 4 C 5.1961 -0.5 0.0 0
M  V30 5 O 2.598 0.0 0.0 0
M  V30 6 C 3.4641 -1.5 0.0 0
M  V30 7 C 5.1961 -1.5 0.0 0
M  V30 8 C 1.732 -0.5 0.0 0 CFG=2
M  V30 9 C 4.3301 -2.0 0.0 0
M  V30 10 C 6.0621 -2.0 0.0 0
M  V30 11 C 0.866 0.0 0.0 0
M  V30 12 C 1.732 -1.5 0.0 0
M  V30 13 N 6.9282 -1.5 0.0 0
M  V30 14 O 0.866 1.0 0.0 0
M  V30 15 O 0.0 -0.5 0.0 0
M  V30 16 C 7.8417 -1.9067 0.0 0
M  V30 17 C 7.0327 -0.5054 0.0 0
M  V30 18 C 8.5108 -1.1635 0.0 0
M  V30 19 C 8.1507 -2.8577 0.0 0
M  V30 20 C 8.0108 -0.2975 0.0 0
M  V30 21 C 6.2895 0.1636 0.0 0
M  V30 22 C 9.489 -1.3715 0.0 0
M  V30 23 C 9.1289 -3.0657 0.0 0
M  V30 24 C 8.4176 0.6159 0.0 0
M  V30 25 C 9.798 -2.3225 0.0 0
M  V30 26 C 10.7761 -2.5304 0.0 0
M  V30 27 O 11.0852 -3.4815 0.0 0
M  V30 28 N 11.4453 -1.7873 0.0 0
M  V30 29 C 12.4234 -1.9952 0.0 0 CFG=2
M  V30 30 C 12.7324 -2.9462 0.0 0
M  V30 31 C 13.0926 -1.252 0.0 0
M  V30 32 C 12.0633 -3.6894 0.0 0
M  V30 33 C 13.7106 -3.1542 0.0 0
M  V30 34 C 12.3723 -4.6404 0.0 0
M  V30 35 C 14.0196 -4.1052 0.0 0
M  V30 36 C 13.3505 -4.8484 0.0 0
M  V30 37 C 13.6595 -5.7994 0.0 0
M  V30 38 C 14.6105 -5.4904 0.0 0
M  V30 39 C 13.9685 -6.7505 0.0 0
M  V30 40 C 12.7084 -6.1084 0.0 0
M  V30 END ATOM
M  V30 BEGIN BOND
M  V30 1 1 1 2
M  V30 2 2 2 3
M  V30 3 1 2 4
M  V30 4 1 3 5
M  V30 5 1 3 6
M  V30 6 2 4 7
M  V30 7 1 5 8
M  V30 8 2 6 9
M  V30 9 1 7 10
M  V30 10 1 8 11
M  V30 11 1 8 12 CFG=1
M  V30 12 1 10 13
M  V30 13 2 11 14
M  V30 14 1 11 15
M  V30 15 1 13 16
M  V30 16 1 13 17
M  V30 17 2 16 18
M  V30 18 1 16 19
M  V30 19 2 17 20
M  V30 20 1 17 21
M  V30 21 1 18 22
M  V30 22 2 19 23
M  V30 23 1 20 24
M  V30 24 2 22 25
M  V30 25 1 25 26
M  V30 26 2 26 27
M  V30 27 1 26 28
M  V30 28 1 28 29
M  V30 29 1 29 30
M  V30 30 1 29 31 CFG=1
M  V30 31 2 30 32
M  V30 32 1 30 33
M  V30 33 1 32 34
M  V30 34 2 33 35
M  V30 35 2 34 36
M  V30 36 1 36 37
M  V30 37 1 37 38
M  V30 38 1 37 39
M  V30 39 1 37 40
M  V30 40 1 7 9
M  V30 41 1 18 20
M  V30 42 1 23 25
M  V30 43 1 35 36
M  V30 END BOND
M  V30 BEGIN COLLECTION
M  V30 MDLV30/STEABS ATOMS=(2 8 29)
M  V30 END COLLECTION
M  V30 END CTAB
M  END
>  <Molecule ChEMBL ID>
CHEMBL3678142

>  <Smiles>
Cc1c(C)n(Cc2ccc(O[C@@H](C)C(=O)O)c(Cl)c2)c2ccc(C(=O)N[C@@H](C)c3ccc(C(C)(C)C)cc3)cc12

>  <IC50_nM>
143

>  <Assay Description>
Lanthascreen Competitive Binding Assay: The assay was performed according to manufacturer protocol. A mixture of 5 nM GST-PPARG-LBD, 5 nM Tb-GST-antibody, 5 nM Fluormone Pan- PPAR Green, and serial dilutions of the experimental compound, beginning at 10 ׬� downwards, was added to wells of black 384-well low- volume plates (Greiner) to a total volume of 18 xL. All dilutions were made in TR-FRET assay buffer C. DMSO at 2% final concentration was used as a no-ligand control. Experiment was performed in triplicate, and incubated for 2 hours in the dark prior to assay read in Perkin Elmer ViewLux ultra HTS microplate reader. FRET signal was measured by excitation at 340 nm and emission at 520 nm for fluorescein and 490 nm for terbium.

$$$$
CHEMBL1782067
Actelion Java MolfileCreator 2.0

  0  0  0  0  0  0              0 V3000
M  V30 BEGIN CTAB
M  V30 COUNTS 36 39 0 0 0
M  V30 BEGIN ATOM
M  V30 1 Cl 7.7942 -6.0 0.0 0
M  V30 2 C 7.7942 -5.0 0.0 0
M  V30 3 C 8.6602 -4.5 0.0 0
M  V30 4 C 6.9282 -4.5 0.0 0
M  V30 5 C 8.6602 -3.5 0.0 0
M  V30 6 C 6.9282 -3.5 0.0 0
M  V30 7 C 7.7942 -3.0 0.0 0
M  V30 8 C 7.7942 -2.0 0.0 0
M  V30 9 O 8.6602 -1.5 0.0 0
M  V30 10 C 6.9282 -1.5 0.0 0
M  V30 11 C 6.9282 -0.5 0.0 0
M  V30 12 C 6.0621 -2.0 0.0 0
M  V30 13 C 6.0621 0.0 0.0 0
M  V30 14 C 5.1961 -1.5 0.0 0
M  V30 15 C 5.1961 -0.5 0.0 0
M  V30 16 C 6.0621 0.9999 0.0 0
M  V30 17 O 4.3301 0.0 0.0 0
M  V30 18 C 6.9282 1.4999 0.0 0
M  V30 19 C 3.4641 -0.5 0.0 0
M  V30 20 C 6.9282 2.4999 0.0 0
M  V30 21 C 2.598 0.0 0.0 0
M  V30 22 C 1.732 -0.5 0.0 0
M  V30 23 O 0.866 0.0 0.0 0
M  V30 24 C 0.0 -0.5 0.0 0
M  V30 25 C -0.866 0.0 0.0 0
M  V30 26 C 0.0 -1.4999 0.0 0
M  V30 27 C -1.732 -0.4999 0.0 0
M  V30 28 C -0.866 -1.9999 0.0 0
M  V30 29 C -1.732 -1.4999 0.0 0
M  V30 30 C -2.598 0.0 0.0 0 CFG=1
M  V30 31 S -2.7026 0.9945 0.0 0
M  V30 32 C -3.5116 -0.4067 0.0 0
M  V30 33 C -3.6807 1.2024 0.0 0
M  V30 34 O -3.7195 -1.3848 0.0 0
M  V30 35 N -4.1807 0.3364 0.0 0
M  V30 36 O -4.0874 2.1159 0.0 0
M  V30 END ATOM
M  V30 BEGIN BOND
M  V30 1 1 1 2
M  V30 2 2 2 3
M  V30 3 1 2 4
M  V30 4 1 3 5
M  V30 5 2 4 6
M  V30 6 2 5 7
M  V30 7 1 7 8
M  V30 8 2 8 9
M  V30 9 1 8 10
M  V30 10 2 10 11
M  V30 11 1 10 12
M  V30 12 1 11 13
M  V30 13 2 12 14
M  V30 14 2 13 15
M  V30 15 1 13 16
M  V30 16 1 15 17
M  V30 17 1 16 18
M  V30 18 1 17 19
M  V30 19 1 18 20
M  V30 20 1 19 21
M  V30 21 1 21 22
M  V30 22 1 22 23
M  V30 23 1 23 24
M  V30 24 2 24 25
M  V30 25 1 24 26
M  V30 26 1 25 27
M  V30 27 2 26 28
M  V30 28 2 27 29
M  V30 29 1 30 27 CFG=3
M  V30 30 1 30 31
M  V30 31 1 30 32
M  V30 32 1 31 33
M  V30 33 2 32 34
M  V30 34 1 32 35
M  V30 35 2 33 36
M  V30 36 1 6 7
M  V30 37 1 14 15
M  V30 38 1 28 29
M  V30 39 1 33 35
M  V30 END BOND
M  V30 BEGIN COLLECTION
M  V30 MDLV30/STEABS ATOMS=(1 30)
M  V30 END COLLECTION
M  V30 END CTAB
M  END
>  <Molecule ChEMBL ID>
CHEMBL1782067

>  <Smiles>
CCCc1cc(C(=O)c2ccc(Cl)cc2)ccc1OCCCOc1cccc([C@H]2SC(=O)NC2=O)c1

>  <IC50_nM>
144

>  <Assay Description>
Displacement of radio-labeled full agonist from PPARgamma receptor

$$$$
CHEMBL117578
Actelion Java MolfileCreator 2.0

  0  0  0  0  0  0              0 V3000
M  V30 BEGIN CTAB
M  V30 COUNTS 36 39 0 0 0
M  V30 BEGIN ATOM
M  V30 1 Cl 7.7942 -6.0 0.0 0
M  V30 2 C 7.7942 -5.0 0.0 0
M  V30 3 C 8.6602 -4.5 0.0 0
M  V30 4 C 6.9282 -4.5 0.0 0
M  V30 5 C 8.6602 -3.5 0.0 0
M  V30 6 C 6.9282 -3.5 0.0 0
M  V30 7 C 7.7942 -3.0 0.0 0
M  V30 8 C 7.7942 -2.0 0.0 0
M  V30 9 O 8.6602 -1.5 0.0 0
M  V30 10 C 6.9282 -1.5 0.0 0
M  V30 11 C 6.9282 -0.5 0.0 0
M  V30 12 C 6.0621 -2.0 0.0 0
M  V30 13 C 6.0621 0.0 0.0 0
M  V30 14 C 5.1961 -1.5 0.0 0
M  V30 15 C 5.1961 -0.5 0.0 0
M  V30 16 C 6.0621 0.9999 0.0 0
M  V30 17 O 4.3301 0.0 0.0 0
M  V30 18 C 6.9282 1.4999 0.0 0
M  V30 19 C 3.4641 -0.5 0.0 0
M  V30 20 C 6.9282 2.4999 0.0 0
M  V30 21 C 2.598 0.0 0.0 0
M  V30 22 C 1.732 -0.5 0.0 0
M  V30 23 O 0.866 0.0 0.0 0
M  V30 24 C 0.0 -0.5 0.0 0
M  V30 25 C -0.866 0.0 0.0 0
M  V30 26 C 0.0 -1.4999 0.0 0
M  V30 27 C -1.732 -0.4999 0.0 0
M  V30 28 C -0.866 -1.9999 0.0 0
M  V30 29 C -1.732 -1.4999 0.0 0
M  V30 30 C -2.598 0.0 0.0 0 CFG=1
M  V30 31 S -2.7026 0.9945 0.0 0
M  V30 32 C -3.5116 -0.4067 0.0 0
M  V30 33 C -3.6807 1.2024 0.0 0
M  V30 34 O -3.7195 -1.3848 0.0 0
M  V30 35 N -4.1807 0.3364 0.0 0
M  V30 36 O -4.0874 2.1159 0.0 0
M  V30 END ATOM
M  V30 BEGIN BOND
M  V30 1 1 1 2
M  V30 2 2 2 3
M  V30 3 1 2 4
M  V30 4 1 3 5
M  V30 5 2 4 6
M  V30 6 2 5 7
M  V30 7 1 7 8
M  V30 8 2 8 9
M  V30 9 1 8 10
M  V30 10 2 10 11
M  V30 11 1 10 12
M  V30 12 1 11 13
M  V30 13 2 12 14
M  V30 14 2 13 15
M  V30 15 1 13 16
M  V30 16 1 15 17
M  V30 17 1 16 18
M  V30 18 1 17 19
M  V30 19 1 18 20
M  V30 20 1 19 21
M  V30 21 1 21 22
M  V30 22 1 22 23
M  V30 23 1 23 24
M  V30 24 2 24 25
M  V30 25 1 24 26
M  V30 26 1 25 27
M  V30 27 2 26 28
M  V30 28 2 27 29
M  V30 29 1 30 27 CFG=3
M  V30 30 1 30 31
M  V30 31 1 30 32
M  V30 32 1 31 33
M  V30 33 2 32 34
M  V30 34 1 32 35
M  V30 35 2 33 36
M  V30 36 1 6 7
M  V30 37 1 14 15
M  V30 38 1 28 29
M  V30 39 1 33 35
M  V30 END BOND
M  V30 BEGIN COLLECTION
M  V30 MDLV30/STERAC1 ATOMS=(1 30)
M  V30 END COLLECTION
M  V30 END CTAB
M  END
>  <Molecule ChEMBL ID>
CHEMBL117578

>  <Smiles>
CCCc1cc(C(=O)c2ccc(Cl)cc2)ccc1OCCCOc1cccc(C2SC(=O)NC2=O)c1

>  <IC50_nM>
144

>  <Assay Description>
In vitro binding affinity against human peroxisome proliferator activated receptor gamma

$$$$
CHEMBL3699406
Actelion Java MolfileCreator 2.0

  0  0  0  0  0  0              0 V3000
M  V30 BEGIN CTAB
M  V30 COUNTS 39 43 0 0 0
M  V30 BEGIN ATOM
M  V30 1 Cl 6.0621 -1.9999 0.0 0
M  V30 2 C 5.1961 -1.4999 0.0 0
M  V30 3 N 5.1961 -0.5 0.0 0
M  V30 4 C 4.3301 -1.9999 0.0 0
M  V30 5 C 4.3301 0.0 0.0 0
M  V30 6 C 3.4641 -1.5 0.0 0
M  V30 7 C 3.4641 -0.5 0.0 0
M  V30 8 C 2.598 0.0 0.0 0 CFG=1
M  V30 9 N 1.732 -0.5 0.0 0
M  V30 10 C 2.598 1.0 0.0 0
M  V30 11 C 0.866 0.0 0.0 0
M  V30 12 O 0.866 1.0 0.0 0
M  V30 13 C 0.0 -0.5 0.0 0
M  V30 14 C 0.0 -1.4999 0.0 0
M  V30 15 C -0.866 0.0 0.0 0
M  V30 16 C -0.866 -1.9999 0.0 0
M  V30 17 C -1.732 -0.4999 0.0 0
M  V30 18 C -1.732 -1.4999 0.0 0
M  V30 19 C -1.0739 -2.9781 0.0 0
M  V30 20 N -2.4751 -2.1691 0.0 0
M  V30 21 C -2.0684 -3.0826 0.0 0
M  V30 22 C -0.4048 -3.7212 0.0 0
M  V30 23 C -3.4533 -1.9612 0.0 0
M  V30 24 C -2.5684 -3.9487 0.0 0
M  V30 25 C -4.1224 -2.7043 0.0 0
M  V30 26 C -5.1006 -2.4964 0.0 0
M  V30 27 C -3.8134 -3.6554 0.0 0
M  V30 28 C -5.7697 -3.2395 0.0 0
M  V30 29 C -4.4825 -4.3985 0.0 0
M  V30 30 C -5.4607 -4.1906 0.0 0
M  V30 31 C -6.1298 -4.9337 0.0 0
M  V30 32 C -7.108 -4.7258 0.0 0
M  V30 33 C -5.8208 -5.8848 0.0 0
M  V30 34 C -7.417 -3.7748 0.0 0
M  V30 35 C -7.7771 -5.469 0.0 0
M  V30 36 C -6.4899 -6.6279 0.0 0
M  V30 37 O -6.7478 -3.0316 0.0 0
M  V30 38 O -8.3951 -3.5669 0.0 0
M  V30 39 C -7.4681 -6.42 0.0 0
M  V30 END ATOM
M  V30 BEGIN BOND
M  V30 1 1 1 2
M  V30 2 2 2 3
M  V30 3 1 2 4
M  V30 4 1 3 5
M  V30 5 2 4 6
M  V30 6 2 5 7
M  V30 7 1 7 8
M  V30 8 1 8 9
M  V30 9 1 8 10 CFG=1
M  V30 10 1 9 11
M  V30 11 2 11 12
M  V30 12 1 11 13
M  V30 13 2 13 14
M  V30 14 1 13 15
M  V30 15 1 14 16
M  V30 16 2 15 17
M  V30 17 2 16 18
M  V30 18 1 16 19
M  V30 19 1 18 20
M  V30 20 2 19 21
M  V30 21 1 19 22
M  V30 22 1 20 23
M  V30 23 1 21 24
M  V30 24 1 23 25
M  V30 25 2 25 26
M  V30 26 1 25 27
M  V30 27 1 26 28
M  V30 28 2 27 29
M  V30 29 2 28 30
M  V30 30 1 30 31
M  V30 31 2 31 32
M  V30 32 1 31 33
M  V30 33 1 32 34
M  V30 34 1 32 35
M  V30 35 2 33 36
M  V30 36 2 34 37
M  V30 37 1 34 38
M  V30 38 2 35 39
M  V30 39 1 6 7
M  V30 40 1 17 18
M  V30 41 1 20 21
M  V30 42 1 29 30
M  V30 43 1 36 39
M  V30 END BOND
M  V30 BEGIN COLLECTION
M  V30 MDLV30/STEABS ATOMS=(1 8)
M  V30 END COLLECTION
M  V30 END CTAB
M  END
>  <Molecule ChEMBL ID>
CHEMBL3699406

>  <Smiles>
Cc1c(C)n(Cc2ccc(-c3ccccc3C(=O)O)cc2)c2ccc(C(=O)N[C@@H](C)c3ccc(Cl)nc3)cc12

>  <IC50_nM>
144

>  <Assay Description>
Lanthascreen Competitive Binding Assay: The assay was performed according to manufacturer protocol. A mixture of nM GST-PPARG-LBD, 5 nM Tb-GST-antibody, 5 nM Fluormone Pan-PPAR Green, and serial dilutions of the experimental compound, beginning at 10 ׬M downwards, was added to wells of black 384-well low-volume plates (Greiner) to a total volume of 18 ׬L. All dilutions were made in TR-FRET assay buffer C. DMSO at 2% final concentration was used as a no-ligand control. Experiment was performed in triplicate, and incubated for 2 hours in the dark prior to assay read in Perkin Elmer ViewLux ultra HTS microplate reader. FRET signal was measured by excitation at 340 nm and emission at 520 nm for fluorescein and 490 nm for terbium. Fold change over DMSO was calculated using GraphPad Prism Software (La Jolla, Calif.) by calculating 520 nm/490 nm ratio. Graphs were plotted as fold change of FRET signal for compound treatment over DMSO-only control.

$$$$
CHEMBL394967
Actelion Java MolfileCreator 2.0

  0  0  0  0  0  0              0 V3000
M  V30 BEGIN CTAB
M  V30 COUNTS 38 42 0 0 0
M  V30 BEGIN ATOM
M  V30 1 O 5.1961 2.25 0.0 0
M  V30 2 C 3.8971 1.5 0.0 0
M  V30 3 O 2.598 2.25 0.0 0
M  V30 4 C 3.8971 0.0 0.0 0
M  V30 5 N 2.598 -0.75 0.0 0
M  V30 6 C 2.598 -2.25 0.0 0
M  V30 7 C 1.299 0.0 0.0 0
M  V30 8 C 3.8971 -3.0 0.0 0
M  V30 9 C 0.0 -0.75 0.0 0
M  V30 10 C 5.1961 -2.2499 0.0 0
M  V30 11 C 3.8971 -4.5 0.0 0
M  V30 12 C -1.299 0.0 0.0 0
M  V30 13 C 0.0 -2.25 0.0 0
M  V30 14 C 6.4951 -2.9999 0.0 0
M  V30 15 C 5.1961 -5.25 0.0 0
M  V30 16 C -2.598 -0.7499 0.0 0
M  V30 17 C -1.299 -2.9999 0.0 0
M  V30 18 C 6.4951 -4.5 0.0 0
M  V30 19 C 7.7942 -2.2499 0.0 0
M  V30 20 O -3.8971 0.0 0.0 0
M  V30 21 C -2.598 -2.2499 0.0 0
M  V30 22 C 7.7942 -5.25 0.0 0
M  V30 23 C 9.0932 -2.9999 0.0 0
M  V30 24 C -5.1961 -0.7499 0.0 0
M  V30 25 C 9.0932 -4.4999 0.0 0
M  V30 26 C -6.4951 0.0 0.0 0
M  V30 27 C -7.7942 -0.7499 0.0 0
M  V30 28 N -9.1645 -0.1398 0.0 0
M  V30 29 C -7.951 -2.2417 0.0 0
M  V30 30 C -10.1682 -1.2546 0.0 0
M  V30 31 O -9.4182 -2.5536 0.0 0
M  V30 32 C -6.8363 -3.2454 0.0 0
M  V30 33 C -11.66 -1.0978 0.0 0
M  V30 34 C -12.2701 0.2724 0.0 0
M  V30 35 C -12.5417 -2.3113 0.0 0
M  V30 36 C -13.7619 0.4292 0.0 0
M  V30 37 C -14.0334 -2.1545 0.0 0
M  V30 38 C -14.6435 -0.7842 0.0 0
M  V30 END ATOM
M  V30 BEGIN BOND
M  V30 1 2 1 2
M  V30 2 1 2 3
M  V30 3 1 2 4
M  V30 4 1 4 5
M  V30 5 1 5 6
M  V30 6 1 5 7
M  V30 7 1 6 8
M  V30 8 1 7 9
M  V30 9 2 8 10
M  V30 10 1 8 11
M  V30 11 2 9 12
M  V30 12 1 9 13
M  V30 13 1 10 14
M  V30 14 2 11 15
M  V30 15 1 12 16
M  V30 16 2 13 17
M  V30 17 1 14 18
M  V30 18 2 14 19
M  V30 19 1 16 20
M  V30 20 2 16 21
M  V30 21 2 18 22
M  V30 22 1 19 23
M  V30 23 1 20 24
M  V30 24 1 22 25
M  V30 25 1 24 26
M  V30 26 1 26 27
M  V30 27 1 27 28
M  V30 28 2 27 29
M  V30 29 2 28 30
M  V30 30 1 29 31
M  V30 31 1 29 32
M  V30 32 1 30 33
M  V30 33 2 33 34
M  V30 34 1 33 35
M  V30 35 1 34 36
M  V30 36 2 35 37
M  V30 37 2 36 38
M  V30 38 1 15 18
M  V30 39 1 17 21
M  V30 40 2 23 25
M  V30 41 1 30 31
M  V30 42 1 37 38
M  V30 END BOND
M  V30 END CTAB
M  END
>  <Molecule ChEMBL ID>
CHEMBL394967

>  <Smiles>
Cc1oc(-c2ccccc2)nc1CCOc1cccc(CN(CC(=O)O)Cc2ccc3ccccc3c2)c1

>  <IC50_nM>
145

>  <Assay Description>
Displacement of fluorescein labeled ligand from PPARgamma receptor by fluorescence polarization assay

$$$$
CHEMBL593801
Actelion Java MolfileCreator 2.0

  0  0  0  0  0  0              0 V3000
M  V30 BEGIN CTAB
M  V30 COUNTS 31 34 0 0 0
M  V30 BEGIN ATOM
M  V30 1 O 6.9282 -4.5 0.0 0
M  V30 2 C 6.9282 -3.5 0.0 0
M  V30 3 O 7.7942 -3.0 0.0 0
M  V30 4 C 6.0621 -3.0 0.0 0 CFG=1
M  V30 5 N 5.1961 -3.5 0.0 0
M  V30 6 C 6.0621 -1.9999 0.0 0
M  V30 7 N 4.2826 -3.0932 0.0 0
M  V30 8 C 5.0916 -4.4945 0.0 0
M  V30 9 C 5.1961 -1.4999 0.0 0
M  V30 10 C 3.6134 -3.8364 0.0 0
M  V30 11 C 4.1134 -4.7024 0.0 0
M  V30 12 C 5.1961 -0.5 0.0 0
M  V30 13 C 4.3301 -1.9999 0.0 0
M  V30 14 C 4.3301 0.0 0.0 0
M  V30 15 C 3.4641 -1.5 0.0 0
M  V30 16 C 3.4641 -0.5 0.0 0
M  V30 17 C 2.598 0.0 0.0 0
M  V30 18 C 1.732 -0.5 0.0 0
M  V30 19 C 0.866 0.0 0.0 0
M  V30 20 C 0.0 -0.5 0.0 0
M  V30 21 N -0.9135 -0.0932 0.0 0
M  V30 22 C -0.1045 -1.4945 0.0 0
M  V30 23 C -1.5826 -0.8364 0.0 0
M  V30 24 O -1.0826 -1.7024 0.0 0
M  V30 25 C 0.6386 -2.1636 0.0 0
M  V30 26 C -2.5771 -0.7318 0.0 0
M  V30 27 C -2.9839 0.1816 0.0 0
M  V30 28 C -3.1649 -1.5408 0.0 0
M  V30 29 C -3.9784 0.2861 0.0 0
M  V30 30 C -4.1595 -1.4363 0.0 0
M  V30 31 C -4.5662 -0.5228 0.0 0
M  V30 END ATOM
M  V30 BEGIN BOND
M  V30 1 2 1 2
M  V30 2 1 2 3
M  V30 3 1 2 4
M  V30 4 1 4 5 CFG=1
M  V30 5 1 4 6
M  V30 6 1 5 7
M  V30 7 1 5 8
M  V30 8 1 6 9
M  V30 9 2 7 10
M  V30 10 2 8 11
M  V30 11 2 9 12
M  V30 12 1 9 13
M  V30 13 1 12 14
M  V30 14 2 13 15
M  V30 15 2 14 16
M  V30 16 1 16 17
M  V30 17 1 17 18
M  V30 18 1 18 19
M  V30 19 1 19 20
M  V30 20 1 20 21
M  V30 21 2 20 22
M  V30 22 2 21 23
M  V30 23 1 22 24
M  V30 24 1 22 25
M  V30 25 1 23 26
M  V30 26 2 26 27
M  V30 27 1 26 28
M  V30 28 1 27 29
M  V30 29 2 28 30
M  V30 30 2 29 31
M  V30 31 1 10 11
M  V30 32 1 15 16
M  V30 33 1 23 24
M  V30 34 1 30 31
M  V30 END BOND
M  V30 BEGIN COLLECTION
M  V30 MDLV30/STEABS ATOMS=(1 4)
M  V30 END COLLECTION
M  V30 END CTAB
M  END
>  <Molecule ChEMBL ID>
CHEMBL593801

>  <Smiles>
Cc1oc(-c2ccccc2)nc1CCCc1ccc(C[C@@H](C(=O)O)n2cccn2)cc1

>  <IC50_nM>
145

>  <Assay Description>
Displacement of [3H2]nTZD3 from GST-tagged human PPARgamma expressed in Escherichia coli by SPA

$$$$
CHEMBL3678097
Actelion Java MolfileCreator 2.0

  0  0  0  0  0  0              0 V3000
M  V30 BEGIN CTAB
M  V30 COUNTS 29 32 0 0 0
M  V30 BEGIN ATOM
M  V30 1 F 8.8737 -1.5453 0.0 0
M  V30 2 C 8.5647 -2.4964 0.0 0
M  V30 3 C 7.5865 -2.7043 0.0 0
M  V30 4 C 9.2338 -3.2395 0.0 0
M  V30 5 C 7.2775 -3.6554 0.0 0
M  V30 6 C 6.9174 -1.9612 0.0 0
M  V30 7 C 8.9248 -4.1906 0.0 0
M  V30 8 C 7.9466 -4.3985 0.0 0
M  V30 9 N 5.9392 -2.1691 0.0 0
M  V30 10 F 9.5939 -4.9337 0.0 0
M  V30 11 C 5.1961 -1.4999 0.0 0
M  V30 12 C 5.5325 -3.0826 0.0 0
M  V30 13 C 4.3301 -1.9999 0.0 0
M  V30 14 C 5.1961 -0.4999 0.0 0
M  V30 15 C 4.538 -2.9781 0.0 0
M  V30 16 C 3.4641 -1.5 0.0 0
M  V30 17 C 4.3301 0.0 0.0 0
M  V30 18 C 3.4641 -0.5 0.0 0
M  V30 19 C 2.598 0.0 0.0 0
M  V30 20 O 2.598 1.0 0.0 0
M  V30 21 N 1.732 -0.5 0.0 0
M  V30 22 C 0.866 0.0 0.0 0
M  V30 23 C 0.0 -0.5 0.0 0
M  V30 24 C -0.866 0.0 0.0 0
M  V30 25 C 0.0 -1.4999 0.0 0
M  V30 26 C -1.732 -0.4999 0.0 0
M  V30 27 C -0.866 -1.9999 0.0 0
M  V30 28 C -1.732 -1.4999 0.0 0
M  V30 29 N -2.598 -1.9999 0.0 0
M  V30 END ATOM
M  V30 BEGIN BOND
M  V30 1 1 1 2
M  V30 2 2 2 3
M  V30 3 1 2 4
M  V30 4 1 3 5
M  V30 5 1 3 6
M  V30 6 2 4 7
M  V30 7 2 5 8
M  V30 8 1 6 9
M  V30 9 1 7 10
M  V30 10 1 9 11
M  V30 11 1 9 12
M  V30 12 2 11 13
M  V30 13 1 11 14
M  V30 14 2 12 15
M  V30 15 1 13 16
M  V30 16 2 14 17
M  V30 17 2 16 18
M  V30 18 1 18 19
M  V30 19 2 19 20
M  V30 20 1 19 21
M  V30 21 1 21 22
M  V30 22 1 22 23
M  V30 23 2 23 24
M  V30 24 1 23 25
M  V30 25 1 24 26
M  V30 26 2 25 27
M  V30 27 2 26 28
M  V30 28 1 28 29
M  V30 29 1 7 8
M  V30 30 1 13 15
M  V30 31 1 17 18
M  V30 32 1 27 28
M  V30 END BOND
M  V30 END CTAB
M  END
>  <Molecule ChEMBL ID>
CHEMBL3678097

>  <Smiles>
Nc1ccc(CNC(=O)c2ccc3c(ccn3Cc3ccc(F)cc3F)c2)cc1

>  <IC50_nM>
147

>  <Assay Description>
Lanthascreen Competitive Binding Assay: The assay was performed according to manufacturer protocol. A mixture of 5 nM GST-PPARG-LBD, 5 nM Tb-GST-antibody, 5 nM Fluormone Pan- PPAR Green, and serial dilutions of the experimental compound, beginning at 10 ׬� downwards, was added to wells of black 384-well low- volume plates (Greiner) to a total volume of 18 xL. All dilutions were made in TR-FRET assay buffer C. DMSO at 2% final concentration was used as a no-ligand control. Experiment was performed in triplicate, and incubated for 2 hours in the dark prior to assay read in Perkin Elmer ViewLux ultra HTS microplate reader. FRET signal was measured by excitation at 340 nm and emission at 520 nm for fluorescein and 490 nm for terbium.

$$$$
CHEMBL3699438
Actelion Java MolfileCreator 2.0

  0  0  0  0  0  0              0 V3000
M  V30 BEGIN CTAB
M  V30 COUNTS 43 47 0 0 0
M  V30 BEGIN ATOM
M  V30 1 O 10.212 -3.0316 0.0 0
M  V30 2 C 10.8811 -3.7748 0.0 0
M  V30 3 N 11.8592 -3.5669 0.0 0
M  V30 4 C 10.5721 -4.7258 0.0 0
M  V30 5 C 12.1682 -2.6158 0.0 0
M  V30 6 C 12.5284 -4.31 0.0 0
M  V30 7 C 9.5939 -4.9337 0.0 0
M  V30 8 C 11.2412 -5.469 0.0 0
M  V30 9 C 8.9248 -4.1906 0.0 0
M  V30 10 C 9.2849 -5.8848 0.0 0
M  V30 11 C 10.9322 -6.42 0.0 0
M  V30 12 C 9.2338 -3.2395 0.0 0
M  V30 13 C 7.9466 -4.3985 0.0 0
M  V30 14 C 9.954 -6.6279 0.0 0
M  V30 15 C 8.5647 -2.4964 0.0 0
M  V30 16 C 7.2775 -3.6554 0.0 0
M  V30 17 C 7.5865 -2.7043 0.0 0
M  V30 18 C 6.9174 -1.9612 0.0 0
M  V30 19 N 5.9392 -2.1691 0.0 0
M  V30 20 C 5.1961 -1.4999 0.0 0
M  V30 21 C 5.5325 -3.0826 0.0 0
M  V30 22 C 4.3301 -1.9999 0.0 0
M  V30 23 C 5.1961 -0.4999 0.0 0
M  V30 24 C 4.538 -2.9781 0.0 0
M  V30 25 C 6.0325 -3.9487 0.0 0
M  V30 26 C 3.4641 -1.5 0.0 0
M  V30 27 C 4.3301 0.0 0.0 0
M  V30 28 C 3.8689 -3.7212 0.0 0
M  V30 29 C 3.4641 -0.5 0.0 0
M  V30 30 C 2.598 0.0 0.0 0
M  V30 31 O 2.598 1.0 0.0 0
M  V30 32 N 1.732 -0.5 0.0 0
M  V30 33 C 0.866 0.0 0.0 0 CFG=2
M  V30 34 C 0.866 1.0 0.0 0
M  V30 35 C 0.0 -0.5 0.0 0
M  V30 36 C 1.732 1.5 0.0 0
M  V30 37 C 0.0 1.4999 0.0 0
M  V30 38 C 1.732 2.5 0.0 0
M  V30 39 C 0.0 2.5 0.0 0
M  V30 40 C 0.866 2.9999 0.0 0
M  V30 41 C 2.598 3.0 0.0 0
M  V30 42 C 3.4641 2.5 0.0 0
M  V30 43 C 2.598 4.0 0.0 0
M  V30 END ATOM
M  V30 BEGIN BOND
M  V30 1 2 1 2
M  V30 2 1 2 3
M  V30 3 1 2 4
M  V30 4 1 3 5
M  V30 5 1 3 6
M  V30 6 2 4 7
M  V30 7 1 4 8
M  V30 8 1 7 9
M  V30 9 1 7 10
M  V30 10 2 8 11
M  V30 11 2 9 12
M  V30 12 1 9 13
M  V30 13 2 10 14
M  V30 14 1 12 15
M  V30 15 2 13 16
M  V30 16 2 15 17
M  V30 17 1 17 18
M  V30 18 1 18 19
M  V30 19 1 19 20
M  V30 20 1 19 21
M  V30 21 2 20 22
M  V30 22 1 20 23
M  V30 23 2 21 24
M  V30 24 1 21 25
M  V30 25 1 22 26
M  V30 26 2 23 27
M  V30 27 1 24 28
M  V30 28 2 26 29
M  V30 29 1 29 30
M  V30 30 2 30 31
M  V30 31 1 30 32
M  V30 32 1 32 33
M  V30 33 1 33 34
M  V30 34 1 33 35 CFG=1
M  V30 35 2 34 36
M  V30 36 1 34 37
M  V30 37 1 36 38
M  V30 38 2 37 39
M  V30 39 2 38 40
M  V30 40 1 38 41
M  V30 41 1 41 42
M  V30 42 1 41 43
M  V30 43 1 11 14
M  V30 44 1 16 17
M  V30 45 1 22 24
M  V30 46 1 27 29
M  V30 47 1 39 40
M  V30 END BOND
M  V30 BEGIN COLLECTION
M  V30 MDLV30/STEABS ATOMS=(1 33)
M  V30 END COLLECTION
M  V30 END CTAB
M  END
>  <Molecule ChEMBL ID>
CHEMBL3699438

>  <Smiles>
Cc1c(C)n(Cc2ccc(-c3ccccc3C(=O)N(C)C)cc2)c2ccc(C(=O)N[C@@H](C)c3cccc(C(C)C)c3)cc12

>  <IC50_nM>
148

>  <Assay Description>
Lanthascreen Competitive Binding Assay: The assay was performed according to manufacturer protocol. A mixture of nM GST-PPARG-LBD, 5 nM Tb-GST-antibody, 5 nM Fluormone Pan-PPAR Green, and serial dilutions of the experimental compound, beginning at 10 ׬M downwards, was added to wells of black 384-well low-volume plates (Greiner) to a total volume of 18 ׬L. All dilutions were made in TR-FRET assay buffer C. DMSO at 2% final concentration was used as a no-ligand control. Experiment was performed in triplicate, and incubated for 2 hours in the dark prior to assay read in Perkin Elmer ViewLux ultra HTS microplate reader. FRET signal was measured by excitation at 340 nm and emission at 520 nm for fluorescein and 490 nm for terbium. Fold change over DMSO was calculated using GraphPad Prism Software (La Jolla, Calif.) by calculating 520 nm/490 nm ratio. Graphs were plotted as fold change of FRET signal for compound treatment over DMSO-only control.

$$$$
CHEMBL117738
Actelion Java MolfileCreator 2.0

  0  0  0  0  0  0              0 V3000
M  V30 BEGIN CTAB
M  V30 COUNTS 34 37 0 0 0
M  V30 BEGIN ATOM
M  V30 1 S 8.7077 -0.4067 0.0 0
M  V30 2 C 9.3769 0.3364 0.0 0
M  V30 3 C 7.7942 0.0 0.0 0 CFG=2
M  V30 4 O 10.3714 0.2318 0.0 0
M  V30 5 N 8.8769 1.2024 0.0 0
M  V30 6 C 6.9282 -0.5 0.0 0
M  V30 7 C 7.8987 0.9945 0.0 0
M  V30 8 C 6.0621 0.0 0.0 0
M  V30 9 C 6.9282 -1.5 0.0 0
M  V30 10 O 7.1556 1.6636 0.0 0
M  V30 11 C 5.1961 -0.5 0.0 0
M  V30 12 C 6.0621 -2.0 0.0 0
M  V30 13 O 4.3301 0.0 0.0 0
M  V30 14 C 5.1961 -1.5 0.0 0
M  V30 15 C 3.4641 -0.5 0.0 0
M  V30 16 C 2.598 0.0 0.0 0
M  V30 17 C 1.732 -0.5 0.0 0
M  V30 18 O 0.866 0.0 0.0 0
M  V30 19 C 0.0 -0.5 0.0 0
M  V30 20 C -0.866 0.0 0.0 0
M  V30 21 C 0.0 -1.4999 0.0 0
M  V30 22 C -1.732 -0.4999 0.0 0
M  V30 23 C -0.866 1.0 0.0 0
M  V30 24 C -0.866 -1.9999 0.0 0
M  V30 25 C -1.732 -1.4999 0.0 0
M  V30 26 C 0.0 1.5 0.0 0
M  V30 27 C -2.598 -1.9999 0.0 0
M  V30 28 C 0.0 2.5 0.0 0
M  V30 29 C -2.598 -2.9999 0.0 0
M  V30 30 C -3.4641 -3.4999 0.0 0
M  V30 31 C -1.732 -3.4999 0.0 0
M  V30 32 C -3.4641 -4.4999 0.0 0
M  V30 33 C -1.732 -4.4999 0.0 0
M  V30 34 C -2.598 -4.9999 0.0 0
M  V30 END ATOM
M  V30 BEGIN BOND
M  V30 1 1 1 2
M  V30 2 1 1 3
M  V30 3 2 2 4
M  V30 4 1 2 5
M  V30 5 1 3 6 CFG=3
M  V30 6 1 3 7
M  V30 7 2 6 8
M  V30 8 1 6 9
M  V30 9 2 7 10
M  V30 10 1 8 11
M  V30 11 2 9 12
M  V30 12 1 11 13
M  V30 13 2 11 14
M  V30 14 1 13 15
M  V30 15 1 15 16
M  V30 16 1 16 17
M  V30 17 1 17 18
M  V30 18 1 18 19
M  V30 19 2 19 20
M  V30 20 1 19 21
M  V30 21 1 20 22
M  V30 22 1 20 23
M  V30 23 2 21 24
M  V30 24 2 22 25
M  V30 25 1 23 26
M  V30 26 1 25 27
M  V30 27 1 26 28
M  V30 28 2 27 29
M  V30 29 1 29 30
M  V30 30 1 29 31
M  V30 31 1 30 32
M  V30 32 1 31 33
M  V30 33 1 32 34
M  V30 34 1 5 7
M  V30 35 1 12 14
M  V30 36 1 24 25
M  V30 37 1 33 34
M  V30 END BOND
M  V30 BEGIN COLLECTION
M  V30 MDLV30/STERAC1 ATOMS=(1 3)
M  V30 END COLLECTION
M  V30 END CTAB
M  END
>  <Molecule ChEMBL ID>
CHEMBL117738

>  <Smiles>
CCCc1cc(C=C2CCCCC2)ccc1OCCCOc1cccc(C2SC(=O)NC2=O)c1

>  <IC50_nM>
150

>  <Assay Description>
In vitro binding affinity against human peroxisome proliferator activated receptor gamma

$$$$
CHEMBL1783042
Actelion Java MolfileCreator 2.0

  0  0  0  0  0  0              0 V3000
M  V30 BEGIN CTAB
M  V30 COUNTS 34 37 0 0 0
M  V30 BEGIN ATOM
M  V30 1 S 8.7077 -0.4067 0.0 0
M  V30 2 C 9.3769 0.3364 0.0 0
M  V30 3 C 7.7942 0.0 0.0 0 CFG=1
M  V30 4 O 10.3714 0.2318 0.0 0
M  V30 5 N 8.8769 1.2024 0.0 0
M  V30 6 C 6.9282 -0.5 0.0 0
M  V30 7 C 7.8987 0.9945 0.0 0
M  V30 8 C 6.0621 0.0 0.0 0
M  V30 9 C 6.9282 -1.5 0.0 0
M  V30 10 O 7.1556 1.6636 0.0 0
M  V30 11 C 5.1961 -0.5 0.0 0
M  V30 12 C 6.0621 -2.0 0.0 0
M  V30 13 O 4.3301 0.0 0.0 0
M  V30 14 C 5.1961 -1.5 0.0 0
M  V30 15 C 3.4641 -0.5 0.0 0
M  V30 16 C 2.598 0.0 0.0 0
M  V30 17 C 1.732 -0.5 0.0 0
M  V30 18 O 0.866 0.0 0.0 0
M  V30 19 C 0.0 -0.5 0.0 0
M  V30 20 C -0.866 0.0 0.0 0
M  V30 21 C 0.0 -1.4999 0.0 0
M  V30 22 C -1.732 -0.4999 0.0 0
M  V30 23 C -0.866 1.0 0.0 0
M  V30 24 C -0.866 -1.9999 0.0 0
M  V30 25 C -1.732 -1.4999 0.0 0
M  V30 26 C 0.0 1.5 0.0 0
M  V30 27 C -2.598 -1.9999 0.0 0
M  V30 28 C 0.0 2.5 0.0 0
M  V30 29 C -2.598 -2.9999 0.0 0
M  V30 30 C -3.4641 -3.4999 0.0 0
M  V30 31 C -1.732 -3.4999 0.0 0
M  V30 32 C -3.4641 -4.4999 0.0 0
M  V30 33 C -1.732 -4.4999 0.0 0
M  V30 34 C -2.598 -4.9999 0.0 0
M  V30 END ATOM
M  V30 BEGIN BOND
M  V30 1 1 1 2
M  V30 2 1 1 3
M  V30 3 2 2 4
M  V30 4 1 2 5
M  V30 5 1 3 6 CFG=1
M  V30 6 1 3 7
M  V30 7 2 6 8
M  V30 8 1 6 9
M  V30 9 2 7 10
M  V30 10 1 8 11
M  V30 11 2 9 12
M  V30 12 1 11 13
M  V30 13 2 11 14
M  V30 14 1 13 15
M  V30 15 1 15 16
M  V30 16 1 16 17
M  V30 17 1 17 18
M  V30 18 1 18 19
M  V30 19 2 19 20
M  V30 20 1 19 21
M  V30 21 1 20 22
M  V30 22 1 20 23
M  V30 23 2 21 24
M  V30 24 2 22 25
M  V30 25 1 23 26
M  V30 26 1 25 27
M  V30 27 1 26 28
M  V30 28 2 27 29
M  V30 29 1 29 30
M  V30 30 1 29 31
M  V30 31 1 30 32
M  V30 32 1 31 33
M  V30 33 1 32 34
M  V30 34 1 5 7
M  V30 35 1 12 14
M  V30 36 1 24 25
M  V30 37 1 33 34
M  V30 END BOND
M  V30 BEGIN COLLECTION
M  V30 MDLV30/STEABS ATOMS=(1 3)
M  V30 END COLLECTION
M  V30 END CTAB
M  END
>  <Molecule ChEMBL ID>
CHEMBL1783042

>  <Smiles>
CCCc1cc(C=C2CCCCC2)ccc1OCCCOc1cccc([C@@H]2SC(=O)NC2=O)c1

>  <IC50_nM>
150

>  <Assay Description>
Displacement of radio-labeled full agonist from PPARgamma receptor

$$$$
CHEMBL3695805
Actelion Java MolfileCreator 2.0

  0  0  0  0  0  0              0 V3000
M  V30 BEGIN CTAB
M  V30 COUNTS 38 42 0 0 0
M  V30 BEGIN ATOM
M  V30 1 O 9.0932 -4.5 0.0 0
M  V30 2 N 9.0932 -3.0 0.0 0 CHG=1
M  V30 3 O 10.3923 -2.25 0.0 0 CHG=-1
M  V30 4 C 7.7942 -2.25 0.0 0
M  V30 5 C 7.7942 -0.75 0.0 0
M  V30 6 C 6.4951 -2.9999 0.0 0
M  V30 7 C 6.4951 0.0 0.0 0
M  V30 8 C 5.1961 -2.25 0.0 0
M  V30 9 C 5.1961 -0.75 0.0 0
M  V30 10 C 3.8971 0.0 0.0 0 CFG=1
M  V30 11 N 2.598 -0.75 0.0 0
M  V30 12 C 3.8971 1.5 0.0 0
M  V30 13 C 1.299 0.0 0.0 0
M  V30 14 O 1.299 1.5 0.0 0
M  V30 15 C 0.0 -0.75 0.0 0
M  V30 16 C 0.0 -2.25 0.0 0
M  V30 17 C -1.299 0.0 0.0 0
M  V30 18 C -1.299 -2.9999 0.0 0
M  V30 19 C -2.598 -0.7499 0.0 0
M  V30 20 C -2.598 -2.2499 0.0 0
M  V30 21 C -1.6109 -4.4672 0.0 0
M  V30 22 N -3.7127 -3.2536 0.0 0
M  V30 23 C -3.1026 -4.624 0.0 0
M  V30 24 C -0.6072 -5.5819 0.0 0
M  V30 25 C -5.18 -2.9418 0.0 0
M  V30 26 C -3.8526 -5.923 0.0 0
M  V30 27 C -6.1837 -4.0565 0.0 0
M  V30 28 C -7.6509 -3.7446 0.0 0
M  V30 29 C -5.7201 -5.4831 0.0 0
M  V30 30 C -8.6546 -4.8593 0.0 0
M  V30 31 C -6.7238 -6.5978 0.0 0
M  V30 32 C -8.1911 -6.2859 0.0 0
M  V30 33 C -9.1947 -7.4006 0.0 0
M  V30 34 C -10.662 -7.0888 0.0 0
M  V30 35 C -8.7312 -8.8272 0.0 0
M  V30 36 N -11.6657 -8.2035 0.0 0
M  V30 37 C -9.7349 -9.9419 0.0 0
M  V30 38 C -11.2021 -9.6301 0.0 0
M  V30 END ATOM
M  V30 BEGIN BOND
M  V30 1 2 1 2
M  V30 2 1 2 3
M  V30 3 1 2 4
M  V30 4 2 4 5
M  V30 5 1 4 6
M  V30 6 1 5 7
M  V30 7 2 6 8
M  V30 8 2 7 9
M  V30 9 1 9 10
M  V30 10 1 10 11
M  V30 11 1 10 12 CFG=1
M  V30 12 1 11 13
M  V30 13 2 13 14
M  V30 14 1 13 15
M  V30 15 2 15 16
M  V30 16 1 15 17
M  V30 17 1 16 18
M  V30 18 2 17 19
M  V30 19 2 18 20
M  V30 20 1 18 21
M  V30 21 1 20 22
M  V30 22 2 21 23
M  V30 23 1 21 24
M  V30 24 1 22 25
M  V30 25 1 23 26
M  V30 26 1 25 27
M  V30 27 2 27 28
M  V30 28 1 27 29
M  V30 29 1 28 30
M  V30 30 2 29 31
M  V30 31 2 30 32
M  V30 32 1 32 33
M  V30 33 2 33 34
M  V30 34 1 33 35
M  V30 35 1 34 36
M  V30 36 2 35 37
M  V30 37 2 36 38
M  V30 38 1 8 9
M  V30 39 1 19 20
M  V30 40 1 22 23
M  V30 41 1 31 32
M  V30 42 1 37 38
M  V30 END BOND
M  V30 BEGIN COLLECTION
M  V30 MDLV30/STEABS ATOMS=(1 10)
M  V30 END COLLECTION
M  V30 END CTAB
M  END
>  <Molecule ChEMBL ID>
CHEMBL3695805

>  <Smiles>
Cc1c(C)n(Cc2ccc(-c3cccnc3)cc2)c2ccc(C(=O)N[C@@H](C)c3ccc([N+](=O)[O-])cc3)cc12

>  <IC50_nM>
150

>  <Assay Description>
Lanthascreen Competitive Binding Assay: The assay was performed according to manufacturer protocol. A mixture of nM GST-PPARG-LBD, 5 nM Tb-GST-antibody, 5 nM Fluormone Pan-PPAR Green, and serial dilutions of the experimental compound, beginning at 10 ׬M downwards, was added to wells of black 384-well low-volume plates (Greiner) to a total volume of 18 ׬L. All dilutions were made in TR-FRET assay buffer C. DMSO at 2% final concentration was used as a no-ligand control. Experiment was performed in triplicate, and incubated for 2 hours in the dark prior to assay read in Perkin Elmer ViewLux ultra HTS microplate reader. FRET signal was measured by excitation at 340 nm and emission at 520 nm for fluorescein and 490 nm for terbium. Fold change over DMSO was calculated using GraphPad Prism Software (La Jolla, Calif.) by calculating 520 nm/490 nm ratio. Graphs were plotted as fold change of FRET signal for compound treatment over DMSO-only control.

$$$$
CHEMBL3678134
Actelion Java MolfileCreator 2.0

  0  0  0  0  0  0              0 V3000
M  V30 BEGIN CTAB
M  V30 COUNTS 40 43 0 0 0
M  V30 BEGIN ATOM
M  V30 1 Cl 6.0621 -1.9999 0.0 0
M  V30 2 C 5.1961 -1.4999 0.0 0
M  V30 3 C 5.1961 -0.5 0.0 0
M  V30 4 C 4.3301 -1.9999 0.0 0
M  V30 5 C 4.3301 0.0 0.0 0
M  V30 6 C 6.0621 0.0 0.0 0
M  V30 7 C 3.4641 -1.5 0.0 0
M  V30 8 C 3.4641 -0.5 0.0 0
M  V30 9 N 6.0621 1.0 0.0 0
M  V30 10 O 2.598 0.0 0.0 0
M  V30 11 C 6.8711 1.5877 0.0 0
M  V30 12 C 5.2531 1.5877 0.0 0
M  V30 13 C 1.732 -0.5 0.0 0 CFG=2
M  V30 14 C 6.5621 2.5388 0.0 0
M  V30 15 C 7.8493 1.3798 0.0 0
M  V30 16 C 5.5621 2.5388 0.0 0
M  V30 17 C 4.3021 1.2787 0.0 0
M  V30 18 C 0.866 0.0 0.0 0
M  V30 19 C 1.732 -1.5 0.0 0
M  V30 20 C 7.2313 3.2819 0.0 0
M  V30 21 C 8.5184 2.123 0.0 0
M  V30 22 C 4.9743 3.3478 0.0 0
M  V30 23 O 0.866 1.0 0.0 0
M  V30 24 O 0.0 -0.5 0.0 0
M  V30 25 C 8.2094 3.074 0.0 0
M  V30 26 C 8.8785 3.8172 0.0 0
M  V30 27 O 9.8567 3.6093 0.0 0
M  V30 28 N 8.5695 4.7682 0.0 0
M  V30 29 C 9.2387 5.5114 0.0 0 CFG=2
M  V30 30 C 10.2168 5.3035 0.0 0
M  V30 31 C 8.9296 6.4624 0.0 0
M  V30 32 C 10.5258 4.3524 0.0 0
M  V30 33 C 10.8859 6.0466 0.0 0
M  V30 34 C 11.504 4.1445 0.0 0
M  V30 35 C 11.8641 5.8387 0.0 0
M  V30 36 C 12.1731 4.8876 0.0 0
M  V30 37 C 13.1512 4.6797 0.0 0
M  V30 38 C 13.3592 5.6579 0.0 0
M  V30 39 C 14.1294 4.4718 0.0 0
M  V30 40 C 12.9433 3.7016 0.0 0
M  V30 END ATOM
M  V30 BEGIN BOND
M  V30 1 1 1 2
M  V30 2 2 2 3
M  V30 3 1 2 4
M  V30 4 1 3 5
M  V30 5 1 3 6
M  V30 6 2 4 7
M  V30 7 2 5 8
M  V30 8 1 6 9
M  V30 9 1 8 10
M  V30 10 1 9 11
M  V30 11 1 9 12
M  V30 12 1 10 13
M  V30 13 2 11 14
M  V30 14 1 11 15
M  V30 15 2 12 16
M  V30 16 1 12 17
M  V30 17 1 13 18
M  V30 18 1 13 19 CFG=1
M  V30 19 1 14 20
M  V30 20 2 15 21
M  V30 21 1 16 22
M  V30 22 2 18 23
M  V30 23 1 18 24
M  V30 24 2 20 25
M  V30 25 1 25 26
M  V30 26 2 26 27
M  V30 27 1 26 28
M  V30 28 1 28 29
M  V30 29 1 29 30
M  V30 30 1 29 31 CFG=1
M  V30 31 2 30 32
M  V30 32 1 30 33
M  V30 33 1 32 34
M  V30 34 2 33 35
M  V30 35 2 34 36
M  V30 36 1 36 37
M  V30 37 1 37 38
M  V30 38 1 37 39
M  V30 39 1 37 40
M  V30 40 1 7 8
M  V30 41 1 14 16
M  V30 42 1 21 25
M  V30 43 1 35 36
M  V30 END BOND
M  V30 BEGIN COLLECTION
M  V30 MDLV30/STEABS ATOMS=(2 13 29)
M  V30 END COLLECTION
M  V30 END CTAB
M  END
>  <Molecule ChEMBL ID>
CHEMBL3678134

>  <Smiles>
Cc1c(C)n(Cc2cc(O[C@@H](C)C(=O)O)ccc2Cl)c2ccc(C(=O)N[C@@H](C)c3ccc(C(C)(C)C)cc3)cc12

>  <IC50_nM>
151

>  <Assay Description>
Lanthascreen Competitive Binding Assay: The assay was performed according to manufacturer protocol. A mixture of 5 nM GST-PPARG-LBD, 5 nM Tb-GST-antibody, 5 nM Fluormone Pan- PPAR Green, and serial dilutions of the experimental compound, beginning at 10 ׬� downwards, was added to wells of black 384-well low- volume plates (Greiner) to a total volume of 18 xL. All dilutions were made in TR-FRET assay buffer C. DMSO at 2% final concentration was used as a no-ligand control. Experiment was performed in triplicate, and incubated for 2 hours in the dark prior to assay read in Perkin Elmer ViewLux ultra HTS microplate reader. FRET signal was measured by excitation at 340 nm and emission at 520 nm for fluorescein and 490 nm for terbium.

$$$$
CHEMBL200495
Actelion Java MolfileCreator 2.0

  0  0  0  0  0  0              0 V3000
M  V30 BEGIN CTAB
M  V30 COUNTS 34 37 0 0 0
M  V30 BEGIN ATOM
M  V30 1 F 9.1393 -2.451 0.0 0
M  V30 2 C 8.1882 -2.76 0.0 0
M  V30 3 F 8.4972 -3.7111 0.0 0
M  V30 4 F 7.2372 -3.069 0.0 0
M  V30 5 C 7.8792 -1.809 0.0 0
M  V30 6 N 8.467 -1.0 0.0 0
M  V30 7 C 6.9282 -1.5 0.0 0
M  V30 8 O 7.8792 -0.1909 0.0 0
M  V30 9 C 6.9282 -0.5 0.0 0
M  V30 10 C 6.0621 -2.0 0.0 0
M  V30 11 C 6.0621 0.0 0.0 0
M  V30 12 C 5.1961 -1.4999 0.0 0
M  V30 13 C 5.1961 -0.5 0.0 0
M  V30 14 C 6.0621 0.9999 0.0 0
M  V30 15 O 4.3301 0.0 0.0 0
M  V30 16 C 6.9282 1.4999 0.0 0
M  V30 17 C 3.4641 -0.5 0.0 0
M  V30 18 C 6.9282 2.4999 0.0 0
M  V30 19 C 2.598 0.0 0.0 0
M  V30 20 C 1.732 -0.5 0.0 0
M  V30 21 O 0.866 0.0 0.0 0
M  V30 22 C 0.0 -0.5 0.0 0
M  V30 23 C 0.0 -1.4999 0.0 0
M  V30 24 C -0.866 0.0 0.0 0
M  V30 25 C -0.866 -1.9999 0.0 0
M  V30 26 C -1.732 -0.4999 0.0 0
M  V30 27 C -1.732 -1.4999 0.0 0
M  V30 28 C -1.0739 -2.9781 0.0 0
M  V30 29 N -2.4751 -2.1691 0.0 0
M  V30 30 C -2.0684 -3.0826 0.0 0
M  V30 31 C -3.4533 -1.9612 0.0 0
M  V30 32 C -3.7623 -1.0101 0.0 0
M  V30 33 O -3.0932 -0.267 0.0 0
M  V30 34 O -4.7405 -0.8022 0.0 0
M  V30 END ATOM
M  V30 BEGIN BOND
M  V30 1 1 1 2
M  V30 2 1 2 3
M  V30 3 1 2 4
M  V30 4 1 2 5
M  V30 5 2 5 6
M  V30 6 1 5 7
M  V30 7 1 6 8
M  V30 8 2 7 9
M  V30 9 1 7 10
M  V30 10 1 9 11
M  V30 11 2 10 12
M  V30 12 2 11 13
M  V30 13 1 11 14
M  V30 14 1 13 15
M  V30 15 1 14 16
M  V30 16 1 15 17
M  V30 17 1 16 18
M  V30 18 1 17 19
M  V30 19 1 19 20
M  V30 20 1 20 21
M  V30 21 1 21 22
M  V30 22 2 22 23
M  V30 23 1 22 24
M  V30 24 1 23 25
M  V30 25 2 24 26
M  V30 26 2 25 27
M  V30 27 1 25 28
M  V30 28 1 27 29
M  V30 29 2 28 30
M  V30 30 1 29 31
M  V30 31 1 31 32
M  V30 32 2 32 33
M  V30 33 1 32 34
M  V30 34 1 8 9
M  V30 35 1 12 13
M  V30 36 1 26 27
M  V30 37 1 29 30
M  V30 END BOND
M  V30 END CTAB
M  END
>  <Molecule ChEMBL ID>
CHEMBL200495

>  <Smiles>
CCCc1c(OCCCOc2ccc3c(ccn3CC(=O)O)c2)ccc2c(C(F)(F)F)noc12

>  <IC50_nM>
152

>  <Assay Description>
Displacement of [3H]rosiglitazone from human PPAR gamma by SPA assay

$$$$
CHEMBL200495
Actelion Java MolfileCreator 2.0

  0  0  0  0  0  0              0 V3000
M  V30 BEGIN CTAB
M  V30 COUNTS 34 37 0 0 0
M  V30 BEGIN ATOM
M  V30 1 F 9.1393 -2.451 0.0 0
M  V30 2 C 8.1882 -2.76 0.0 0
M  V30 3 F 8.4972 -3.7111 0.0 0
M  V30 4 F 7.2372 -3.069 0.0 0
M  V30 5 C 7.8792 -1.809 0.0 0
M  V30 6 N 8.467 -1.0 0.0 0
M  V30 7 C 6.9282 -1.5 0.0 0
M  V30 8 O 7.8792 -0.1909 0.0 0
M  V30 9 C 6.9282 -0.5 0.0 0
M  V30 10 C 6.0621 -2.0 0.0 0
M  V30 11 C 6.0621 0.0 0.0 0
M  V30 12 C 5.1961 -1.4999 0.0 0
M  V30 13 C 5.1961 -0.5 0.0 0
M  V30 14 C 6.0621 0.9999 0.0 0
M  V30 15 O 4.3301 0.0 0.0 0
M  V30 16 C 6.9282 1.4999 0.0 0
M  V30 17 C 3.4641 -0.5 0.0 0
M  V30 18 C 6.9282 2.4999 0.0 0
M  V30 19 C 2.598 0.0 0.0 0
M  V30 20 C 1.732 -0.5 0.0 0
M  V30 21 O 0.866 0.0 0.0 0
M  V30 22 C 0.0 -0.5 0.0 0
M  V30 23 C 0.0 -1.4999 0.0 0
M  V30 24 C -0.866 0.0 0.0 0
M  V30 25 C -0.866 -1.9999 0.0 0
M  V30 26 C -1.732 -0.4999 0.0 0
M  V30 27 C -1.732 -1.4999 0.0 0
M  V30 28 C -1.0739 -2.9781 0.0 0
M  V30 29 N -2.4751 -2.1691 0.0 0
M  V30 30 C -2.0684 -3.0826 0.0 0
M  V30 31 C -3.4533 -1.9612 0.0 0
M  V30 32 C -3.7623 -1.0101 0.0 0
M  V30 33 O -3.0932 -0.267 0.0 0
M  V30 34 O -4.7405 -0.8022 0.0 0
M  V30 END ATOM
M  V30 BEGIN BOND
M  V30 1 1 1 2
M  V30 2 1 2 3
M  V30 3 1 2 4
M  V30 4 1 2 5
M  V30 5 2 5 6
M  V30 6 1 5 7
M  V30 7 1 6 8
M  V30 8 2 7 9
M  V30 9 1 7 10
M  V30 10 1 9 11
M  V30 11 2 10 12
M  V30 12 2 11 13
M  V30 13 1 11 14
M  V30 14 1 13 15
M  V30 15 1 14 16
M  V30 16 1 15 17
M  V30 17 1 16 18
M  V30 18 1 17 19
M  V30 19 1 19 20
M  V30 20 1 20 21
M  V30 21 1 21 22
M  V30 22 2 22 23
M  V30 23 1 22 24
M  V30 24 1 23 25
M  V30 25 2 24 26
M  V30 26 2 25 27
M  V30 27 1 25 28
M  V30 28 1 27 29
M  V30 29 2 28 30
M  V30 30 1 29 31
M  V30 31 1 31 32
M  V30 32 2 32 33
M  V30 33 1 32 34
M  V30 34 1 8 9
M  V30 35 1 12 13
M  V30 36 1 26 27
M  V30 37 1 29 30
M  V30 END BOND
M  V30 END CTAB
M  END
>  <Molecule ChEMBL ID>
CHEMBL200495

>  <Smiles>
CCCc1c(OCCCOc2ccc3c(ccn3CC(=O)O)c2)ccc2c(C(F)(F)F)noc12

>  <IC50_nM>
152

>  <Assay Description>
Displacement of [3H]rosiglitazone from human PPAR gamma by SPA assay

$$$$
CHEMBL200495
Actelion Java MolfileCreator 2.0

  0  0  0  0  0  0              0 V3000
M  V30 BEGIN CTAB
M  V30 COUNTS 34 37 0 0 0
M  V30 BEGIN ATOM
M  V30 1 F 9.1393 -2.451 0.0 0
M  V30 2 C 8.1882 -2.76 0.0 0
M  V30 3 F 8.4972 -3.7111 0.0 0
M  V30 4 F 7.2372 -3.069 0.0 0
M  V30 5 C 7.8792 -1.809 0.0 0
M  V30 6 N 8.467 -1.0 0.0 0
M  V30 7 C 6.9282 -1.5 0.0 0
M  V30 8 O 7.8792 -0.1909 0.0 0
M  V30 9 C 6.9282 -0.5 0.0 0
M  V30 10 C 6.0621 -2.0 0.0 0
M  V30 11 C 6.0621 0.0 0.0 0
M  V30 12 C 5.1961 -1.4999 0.0 0
M  V30 13 C 5.1961 -0.5 0.0 0
M  V30 14 C 6.0621 0.9999 0.0 0
M  V30 15 O 4.3301 0.0 0.0 0
M  V30 16 C 6.9282 1.4999 0.0 0
M  V30 17 C 3.4641 -0.5 0.0 0
M  V30 18 C 6.9282 2.4999 0.0 0
M  V30 19 C 2.598 0.0 0.0 0
M  V30 20 C 1.732 -0.5 0.0 0
M  V30 21 O 0.866 0.0 0.0 0
M  V30 22 C 0.0 -0.5 0.0 0
M  V30 23 C 0.0 -1.4999 0.0 0
M  V30 24 C -0.866 0.0 0.0 0
M  V30 25 C -0.866 -1.9999 0.0 0
M  V30 26 C -1.732 -0.4999 0.0 0
M  V30 27 C -1.732 -1.4999 0.0 0
M  V30 28 C -1.0739 -2.9781 0.0 0
M  V30 29 N -2.4751 -2.1691 0.0 0
M  V30 30 C -2.0684 -3.0826 0.0 0
M  V30 31 C -3.4533 -1.9612 0.0 0
M  V30 32 C -3.7623 -1.0101 0.0 0
M  V30 33 O -3.0932 -0.267 0.0 0
M  V30 34 O -4.7405 -0.8022 0.0 0
M  V30 END ATOM
M  V30 BEGIN BOND
M  V30 1 1 1 2
M  V30 2 1 2 3
M  V30 3 1 2 4
M  V30 4 1 2 5
M  V30 5 2 5 6
M  V30 6 1 5 7
M  V30 7 1 6 8
M  V30 8 2 7 9
M  V30 9 1 7 10
M  V30 10 1 9 11
M  V30 11 2 10 12
M  V30 12 2 11 13
M  V30 13 1 11 14
M  V30 14 1 13 15
M  V30 15 1 14 16
M  V30 16 1 15 17
M  V30 17 1 16 18
M  V30 18 1 17 19
M  V30 19 1 19 20
M  V30 20 1 20 21
M  V30 21 1 21 22
M  V30 22 2 22 23
M  V30 23 1 22 24
M  V30 24 1 23 25
M  V30 25 2 24 26
M  V30 26 2 25 27
M  V30 27 1 25 28
M  V30 28 1 27 29
M  V30 29 2 28 30
M  V30 30 1 29 31
M  V30 31 1 31 32
M  V30 32 2 32 33
M  V30 33 1 32 34
M  V30 34 1 8 9
M  V30 35 1 12 13
M  V30 36 1 26 27
M  V30 37 1 29 30
M  V30 END BOND
M  V30 END CTAB
M  END
>  <Molecule ChEMBL ID>
CHEMBL200495

>  <Smiles>
CCCc1c(OCCCOc2ccc3c(ccn3CC(=O)O)c2)ccc2c(C(F)(F)F)noc12

>  <IC50_nM>
152.05

>  <Assay Description>
Agonist activity at PPARgamma

$$$$
CHEMBL3678084
Actelion Java MolfileCreator 2.0

  0  0  0  0  0  0              0 V3000
M  V30 BEGIN CTAB
M  V30 COUNTS 30 33 0 0 0
M  V30 BEGIN ATOM
M  V30 1 Br 6.0621 -1.9999 0.0 0
M  V30 2 C 5.1961 -1.4999 0.0 0
M  V30 3 C 5.1961 -0.5 0.0 0
M  V30 4 C 4.3301 -1.9999 0.0 0
M  V30 5 C 4.3301 0.0 0.0 0
M  V30 6 C 3.4641 -1.5 0.0 0
M  V30 7 C 3.4641 -0.5 0.0 0
M  V30 8 C 2.598 0.0 0.0 0 CFG=1
M  V30 9 N 1.732 -0.5 0.0 0
M  V30 10 C 2.598 1.0 0.0 0
M  V30 11 C 0.866 0.0 0.0 0
M  V30 12 O 0.866 1.0 0.0 0
M  V30 13 C 0.0 -0.5 0.0 0
M  V30 14 C 0.0 -1.4999 0.0 0
M  V30 15 C -0.866 0.0 0.0 0
M  V30 16 C -0.866 -1.9999 0.0 0
M  V30 17 C -1.732 -0.4999 0.0 0
M  V30 18 C -1.732 -1.4999 0.0 0
M  V30 19 C -1.0739 -2.9781 0.0 0
M  V30 20 N -2.4751 -2.1691 0.0 0
M  V30 21 C -2.0684 -3.0826 0.0 0
M  V30 22 C -3.4533 -1.9612 0.0 0
M  V30 23 C -4.1224 -2.7043 0.0 0
M  V30 24 C -5.1006 -2.4964 0.0 0
M  V30 25 C -3.8134 -3.6554 0.0 0
M  V30 26 F -5.4096 -1.5453 0.0 0
M  V30 27 C -5.7697 -3.2395 0.0 0
M  V30 28 C -4.4825 -4.3985 0.0 0
M  V30 29 C -5.4607 -4.1906 0.0 0
M  V30 30 F -6.1298 -4.9337 0.0 0
M  V30 END ATOM
M  V30 BEGIN BOND
M  V30 1 1 1 2
M  V30 2 2 2 3
M  V30 3 1 2 4
M  V30 4 1 3 5
M  V30 5 2 4 6
M  V30 6 2 5 7
M  V30 7 1 7 8
M  V30 8 1 8 9
M  V30 9 1 8 10 CFG=1
M  V30 10 1 9 11
M  V30 11 2 11 12
M  V30 12 1 11 13
M  V30 13 2 13 14
M  V30 14 1 13 15
M  V30 15 1 14 16
M  V30 16 2 15 17
M  V30 17 2 16 18
M  V30 18 1 16 19
M  V30 19 1 18 20
M  V30 20 2 19 21
M  V30 21 1 20 22
M  V30 22 1 22 23
M  V30 23 2 23 24
M  V30 24 1 23 25
M  V30 25 1 24 26
M  V30 26 1 24 27
M  V30 27 2 25 28
M  V30 28 2 27 29
M  V30 29 1 29 30
M  V30 30 1 6 7
M  V30 31 1 17 18
M  V30 32 1 20 21
M  V30 33 1 28 29
M  V30 END BOND
M  V30 BEGIN COLLECTION
M  V30 MDLV30/STEABS ATOMS=(1 8)
M  V30 END COLLECTION
M  V30 END CTAB
M  END
>  <Molecule ChEMBL ID>
CHEMBL3678084

>  <Smiles>
C[C@H](NC(=O)c1ccc2c(ccn2Cc2ccc(F)cc2F)c1)c1ccc(Br)cc1

>  <IC50_nM>
154

>  <Assay Description>
Lanthascreen Competitive Binding Assay: The assay was performed according to manufacturer protocol. A mixture of 5 nM GST-PPARG-LBD, 5 nM Tb-GST-antibody, 5 nM Fluormone Pan- PPAR Green, and serial dilutions of the experimental compound, beginning at 10 ׬� downwards, was added to wells of black 384-well low- volume plates (Greiner) to a total volume of 18 xL. All dilutions were made in TR-FRET assay buffer C. DMSO at 2% final concentration was used as a no-ligand control. Experiment was performed in triplicate, and incubated for 2 hours in the dark prior to assay read in Perkin Elmer ViewLux ultra HTS microplate reader. FRET signal was measured by excitation at 340 nm and emission at 520 nm for fluorescein and 490 nm for terbium.

$$$$
CHEMBL3348830
Actelion Java MolfileCreator 2.0

  0  0  0  0  0  0              0 V3000
M  V30 BEGIN CTAB
M  V30 COUNTS 41 45 0 0 0
M  V30 BEGIN ATOM
M  V30 1 O 6.0621 -3.0 0.0 0
M  V30 2 N 6.0621 -1.9999 0.0 0 CHG=1
M  V30 3 O 6.9282 -1.5 0.0 0 CHG=-1
M  V30 4 C 5.1961 -1.4999 0.0 0
M  V30 5 C 5.1961 -0.5 0.0 0
M  V30 6 C 4.3301 -1.9999 0.0 0
M  V30 7 C 4.3301 0.0 0.0 0
M  V30 8 C 3.4641 -1.5 0.0 0
M  V30 9 C 3.4641 -0.5 0.0 0
M  V30 10 C 2.598 0.0 0.0 0 CFG=1
M  V30 11 N 1.732 -0.5 0.0 0
M  V30 12 C 2.598 1.0 0.0 0
M  V30 13 C 0.866 0.0 0.0 0
M  V30 14 O 0.866 1.0 0.0 0
M  V30 15 C 0.0 -0.5 0.0 0
M  V30 16 C 0.0 -1.4999 0.0 0
M  V30 17 C -0.866 0.0 0.0 0
M  V30 18 C -0.866 -1.9999 0.0 0
M  V30 19 C -1.732 -0.4999 0.0 0
M  V30 20 C -1.732 -1.4999 0.0 0
M  V30 21 C -1.0739 -2.9781 0.0 0
M  V30 22 N -2.4751 -2.1691 0.0 0
M  V30 23 C -2.0684 -3.0826 0.0 0
M  V30 24 C -0.4048 -3.7212 0.0 0
M  V30 25 C -3.4533 -1.9612 0.0 0
M  V30 26 C -2.5684 -3.9487 0.0 0
M  V30 27 C -4.1224 -2.7043 0.0 0
M  V30 28 C -5.1006 -2.4964 0.0 0
M  V30 29 C -3.8134 -3.6554 0.0 0
M  V30 30 C -5.7697 -3.2395 0.0 0
M  V30 31 C -4.4825 -4.3985 0.0 0
M  V30 32 C -5.4607 -4.1906 0.0 0
M  V30 33 C -6.1298 -4.9337 0.0 0
M  V30 34 C -7.108 -4.7258 0.0 0
M  V30 35 C -5.8208 -5.8848 0.0 0
M  V30 36 C -7.417 -3.7748 0.0 0
M  V30 37 C -7.7771 -5.469 0.0 0
M  V30 38 C -6.4899 -6.6279 0.0 0
M  V30 39 O -6.7478 -3.0316 0.0 0
M  V30 40 O -8.3951 -3.5669 0.0 0
M  V30 41 C -7.4681 -6.42 0.0 0
M  V30 END ATOM
M  V30 BEGIN BOND
M  V30 1 2 1 2
M  V30 2 1 2 3
M  V30 3 1 2 4
M  V30 4 2 4 5
M  V30 5 1 4 6
M  V30 6 1 5 7
M  V30 7 2 6 8
M  V30 8 2 7 9
M  V30 9 1 9 10
M  V30 10 1 10 11
M  V30 11 1 10 12 CFG=1
M  V30 12 1 11 13
M  V30 13 2 13 14
M  V30 14 1 13 15
M  V30 15 2 15 16
M  V30 16 1 15 17
M  V30 17 1 16 18
M  V30 18 2 17 19
M  V30 19 2 18 20
M  V30 20 1 18 21
M  V30 21 1 20 22
M  V30 22 2 21 23
M  V30 23 1 21 24
M  V30 24 1 22 25
M  V30 25 1 23 26
M  V30 26 1 25 27
M  V30 27 2 27 28
M  V30 28 1 27 29
M  V30 29 1 28 30
M  V30 30 2 29 31
M  V30 31 2 30 32
M  V30 32 1 32 33
M  V30 33 2 33 34
M  V30 34 1 33 35
M  V30 35 1 34 36
M  V30 36 1 34 37
M  V30 37 2 35 38
M  V30 38 2 36 39
M  V30 39 1 36 40
M  V30 40 2 37 41
M  V30 41 1 8 9
M  V30 42 1 19 20
M  V30 43 1 22 23
M  V30 44 1 31 32
M  V30 45 1 38 41
M  V30 END BOND
M  V30 BEGIN COLLECTION
M  V30 MDLV30/STEABS ATOMS=(1 10)
M  V30 END COLLECTION
M  V30 END CTAB
M  END
>  <Molecule ChEMBL ID>
CHEMBL3348830

>  <Smiles>
Cc1c(C)n(Cc2ccc(-c3ccccc3C(=O)O)cc2)c2ccc(C(=O)N[C@@H](C)c3ccc([N+](=O)[O-])cc3)cc12

>  <IC50_nM>
154

>  <Assay Description>
Binding affinity to PPARgamma (unknown origin) by lanthascreen TR-FRET assay

$$$$
CHEMBL3695764
Actelion Java MolfileCreator 2.0

  0  0  0  0  0  0              0 V3000
M  V30 BEGIN CTAB
M  V30 COUNTS 42 46 0 0 0
M  V30 BEGIN ATOM
M  V30 1 F 7.4282 0.366 0.0 0
M  V30 2 C 6.9282 -0.5 0.0 0
M  V30 3 F 7.7942 -1.0 0.0 0
M  V30 4 F 6.4282 -1.366 0.0 0
M  V30 5 O 6.0621 0.0 0.0 0
M  V30 6 C 5.1961 -0.5 0.0 0
M  V30 7 C 4.3301 0.0 0.0 0
M  V30 8 C 5.1961 -1.4999 0.0 0
M  V30 9 C 3.4641 -0.5 0.0 0
M  V30 10 C 4.3301 -1.9999 0.0 0
M  V30 11 C 3.4641 -1.4999 0.0 0
M  V30 12 C 2.598 0.0 0.0 0
M  V30 13 N 1.732 -0.5 0.0 0
M  V30 14 C 0.866 0.0 0.0 0
M  V30 15 O 0.866 1.0 0.0 0
M  V30 16 C 0.0 -0.5 0.0 0
M  V30 17 C 0.0 -1.4999 0.0 0
M  V30 18 C -0.866 0.0 0.0 0
M  V30 19 C -0.866 -1.9999 0.0 0
M  V30 20 C -1.732 -0.4999 0.0 0
M  V30 21 C -1.732 -1.4999 0.0 0
M  V30 22 C -1.0739 -2.9781 0.0 0
M  V30 23 N -2.4751 -2.1691 0.0 0
M  V30 24 C -2.0684 -3.0826 0.0 0
M  V30 25 C -0.4048 -3.7212 0.0 0
M  V30 26 C -3.4533 -1.9612 0.0 0
M  V30 27 C -2.5684 -3.9487 0.0 0
M  V30 28 C -4.1224 -2.7043 0.0 0
M  V30 29 C -5.1006 -2.4964 0.0 0
M  V30 30 C -3.8134 -3.6554 0.0 0
M  V30 31 C -5.7697 -3.2395 0.0 0
M  V30 32 C -4.4825 -4.3985 0.0 0
M  V30 33 C -5.4607 -4.1906 0.0 0
M  V30 34 C -6.1298 -4.9337 0.0 0
M  V30 35 C -7.108 -4.7258 0.0 0
M  V30 36 C -5.8208 -5.8848 0.0 0
M  V30 37 C -7.417 -3.7748 0.0 0
M  V30 38 C -7.7771 -5.469 0.0 0
M  V30 39 C -6.4899 -6.6279 0.0 0
M  V30 40 O -6.7478 -3.0316 0.0 0
M  V30 41 O -8.3951 -3.5669 0.0 0
M  V30 42 C -7.4681 -6.42 0.0 0
M  V30 END ATOM
M  V30 BEGIN BOND
M  V30 1 1 1 2
M  V30 2 1 2 3
M  V30 3 1 2 4
M  V30 4 1 2 5
M  V30 5 1 5 6
M  V30 6 2 6 7
M  V30 7 1 6 8
M  V30 8 1 7 9
M  V30 9 2 8 10
M  V30 10 2 9 11
M  V30 11 1 9 12
M  V30 12 1 12 13
M  V30 13 1 13 14
M  V30 14 2 14 15
M  V30 15 1 14 16
M  V30 16 2 16 17
M  V30 17 1 16 18
M  V30 18 1 17 19
M  V30 19 2 18 20
M  V30 20 2 19 21
M  V30 21 1 19 22
M  V30 22 1 21 23
M  V30 23 2 22 24
M  V30 24 1 22 25
M  V30 25 1 23 26
M  V30 26 1 24 27
M  V30 27 1 26 28
M  V30 28 2 28 29
M  V30 29 1 28 30
M  V30 30 1 29 31
M  V30 31 2 30 32
M  V30 32 2 31 33
M  V30 33 1 33 34
M  V30 34 2 34 35
M  V30 35 1 34 36
M  V30 36 1 35 37
M  V30 37 1 35 38
M  V30 38 2 36 39
M  V30 39 2 37 40
M  V30 40 1 37 41
M  V30 41 2 38 42
M  V30 42 1 10 11
M  V30 43 1 20 21
M  V30 44 1 23 24
M  V30 45 1 32 33
M  V30 46 1 39 42
M  V30 END BOND
M  V30 END CTAB
M  END
>  <Molecule ChEMBL ID>
CHEMBL3695764

>  <Smiles>
Cc1c(C)n(Cc2ccc(-c3ccccc3C(=O)O)cc2)c2ccc(C(=O)NCc3cccc(OC(F)(F)F)c3)cc12

>  <IC50_nM>
157

>  <Assay Description>
Lanthascreen Competitive Binding Assay: The assay was performed according to manufacturer protocol. A mixture of nM GST-PPARG-LBD, 5 nM Tb-GST-antibody, 5 nM Fluormone Pan-PPAR Green, and serial dilutions of the experimental compound, beginning at 10 ׬M downwards, was added to wells of black 384-well low-volume plates (Greiner) to a total volume of 18 ׬L. All dilutions were made in TR-FRET assay buffer C. DMSO at 2% final concentration was used as a no-ligand control. Experiment was performed in triplicate, and incubated for 2 hours in the dark prior to assay read in Perkin Elmer ViewLux ultra HTS microplate reader. FRET signal was measured by excitation at 340 nm and emission at 520 nm for fluorescein and 490 nm for terbium. Fold change over DMSO was calculated using GraphPad Prism Software (La Jolla, Calif.) by calculating 520 nm/490 nm ratio. Graphs were plotted as fold change of FRET signal for compound treatment over DMSO-only control.

$$$$
CHEMBL121
Actelion Java MolfileCreator 2.0

  0  0  0  0  0  0              0 V3000
M  V30 BEGIN CTAB
M  V30 COUNTS 25 27 0 0 0
M  V30 BEGIN ATOM
M  V30 1 S 7.8987 0.0054 0.0 0
M  V30 2 C 8.8769 -0.2024 0.0 0
M  V30 3 C 7.7942 0.9999 0.0 0 CFG=2
M  V30 4 O 9.2836 -1.1159 0.0 0
M  V30 5 N 9.3769 0.6635 0.0 0
M  V30 6 C 8.7077 1.4067 0.0 0
M  V30 7 C 6.9282 1.4999 0.0 0
M  V30 8 O 8.9156 2.3848 0.0 0
M  V30 9 C 6.0621 0.9999 0.0 0
M  V30 10 C 5.1961 1.4999 0.0 0
M  V30 11 C 6.0621 0.0 0.0 0
M  V30 12 C 4.3301 0.9999 0.0 0
M  V30 13 C 5.1961 -0.5 0.0 0
M  V30 14 C 4.3301 0.0 0.0 0
M  V30 15 O 3.4641 -0.5 0.0 0
M  V30 16 C 2.598 0.0 0.0 0
M  V30 17 C 1.732 -0.5 0.0 0
M  V30 18 N 0.866 0.0 0.0 0
M  V30 19 C 0.866 1.0 0.0 0
M  V30 20 C 0.0 -0.5 0.0 0
M  V30 21 N 1.732 1.4999 0.0 0
M  V30 22 C 0.0 1.4999 0.0 0
M  V30 23 C 1.732 2.5 0.0 0
M  V30 24 C 0.0 2.5 0.0 0
M  V30 25 C 0.866 3.0 0.0 0
M  V30 END ATOM
M  V30 BEGIN BOND
M  V30 1 1 1 2
M  V30 2 1 1 3
M  V30 3 2 2 4
M  V30 4 1 2 5
M  V30 5 1 3 6
M  V30 6 1 3 7 CFG=1
M  V30 7 2 6 8
M  V30 8 1 7 9
M  V30 9 2 9 10
M  V30 10 1 9 11
M  V30 11 1 10 12
M  V30 12 2 11 13
M  V30 13 2 12 14
M  V30 14 1 14 15
M  V30 15 1 15 16
M  V30 16 1 16 17
M  V30 17 1 17 18
M  V30 18 1 18 19
M  V30 19 1 18 20
M  V30 20 2 19 21
M  V30 21 1 19 22
M  V30 22 1 21 23
M  V30 23 2 22 24
M  V30 24 2 23 25
M  V30 25 1 5 6
M  V30 26 1 13 14
M  V30 27 1 24 25
M  V30 END BOND
M  V30 BEGIN COLLECTION
M  V30 MDLV30/STERAC1 ATOMS=(1 3)
M  V30 END COLLECTION
M  V30 END CTAB
M  END
>  <Molecule ChEMBL ID>
CHEMBL121

>  <Smiles>
CN(CCOc1ccc(CC2SC(=O)NC2=O)cc1)c1ccccn1

>  <IC50_nM>
159

>  <Assay Description>
Displacement of fluormone from human PPARgamma LBD expressed in Escherichia coli BL21 DE3 by fluorescence polarization assay

$$$$
CHEMBL403847
Actelion Java MolfileCreator 2.0

  0  0  0  0  0  0              0 V3000
M  V30 BEGIN CTAB
M  V30 COUNTS 38 42 0 0 0
M  V30 BEGIN ATOM
M  V30 1 O 6.687 -2.3319 0.0 0
M  V30 2 C 7.187 -1.4659 0.0 0
M  V30 3 N 8.1529 -1.2071 0.0 0
M  V30 4 C 6.9282 -0.5 0.0 0
M  V30 5 C 9.0189 -1.7071 0.0 0
M  V30 6 C 7.8941 -0.2411 0.0 0
M  V30 7 C 6.0621 0.0 0.0 0
M  V30 8 C 9.0189 -2.7071 0.0 0
M  V30 9 C 9.8849 -1.2071 0.0 0
M  V30 10 C 8.3941 0.6248 0.0 0
M  V30 11 C 5.1961 -0.5 0.0 0
M  V30 12 C 9.8849 -3.2071 0.0 0
M  V30 13 C 10.751 -1.7071 0.0 0
M  V30 14 O 9.3941 0.6248 0.0 0
M  V30 15 O 7.8941 1.4908 0.0 0
M  V30 16 C 4.3301 0.0 0.0 0
M  V30 17 C 5.1961 -1.4999 0.0 0
M  V30 18 C 10.751 -2.7071 0.0 0
M  V30 19 C 3.4641 -0.5 0.0 0
M  V30 20 C 4.3301 -1.9999 0.0 0
M  V30 21 O 11.617 -3.2071 0.0 0
M  V30 22 O 2.598 0.0 0.0 0
M  V30 23 C 3.4641 -1.4999 0.0 0
M  V30 24 C 12.483 -2.7071 0.0 0
M  V30 25 C 1.732 -0.5 0.0 0
M  V30 26 C 0.866 0.0 0.0 0
M  V30 27 C 0.0 -0.5 0.0 0
M  V30 28 N -0.9135 -0.0932 0.0 0
M  V30 29 C -0.1045 -1.4945 0.0 0
M  V30 30 C -1.5826 -0.8364 0.0 0
M  V30 31 O -1.0826 -1.7024 0.0 0
M  V30 32 C 0.6386 -2.1636 0.0 0
M  V30 33 C -2.5771 -0.7318 0.0 0
M  V30 34 C -2.9839 0.1816 0.0 0
M  V30 35 C -3.1649 -1.5408 0.0 0
M  V30 36 C -3.9784 0.2861 0.0 0
M  V30 37 C -4.1595 -1.4363 0.0 0
M  V30 38 C -4.5662 -0.5228 0.0 0
M  V30 END ATOM
M  V30 BEGIN BOND
M  V30 1 2 1 2
M  V30 2 1 2 3
M  V30 3 1 2 4
M  V30 4 1 3 5
M  V30 5 1 3 6
M  V30 6 1 4 7
M  V30 7 2 5 8
M  V30 8 1 5 9
M  V30 9 1 6 10
M  V30 10 1 7 11
M  V30 11 1 8 12
M  V30 12 2 9 13
M  V30 13 2 10 14
M  V30 14 1 10 15
M  V30 15 2 11 16
M  V30 16 1 11 17
M  V30 17 2 12 18
M  V30 18 1 16 19
M  V30 19 2 17 20
M  V30 20 1 18 21
M  V30 21 1 19 22
M  V30 22 2 19 23
M  V30 23 1 21 24
M  V30 24 1 22 25
M  V30 25 1 25 26
M  V30 26 1 26 27
M  V30 27 1 27 28
M  V30 28 2 27 29
M  V30 29 2 28 30
M  V30 30 1 29 31
M  V30 31 1 29 32
M  V30 32 1 30 33
M  V30 33 2 33 34
M  V30 34 1 33 35
M  V30 35 1 34 36
M  V30 36 2 35 37
M  V30 37 2 36 38
M  V30 38 1 4 6
M  V30 39 1 13 18
M  V30 40 1 20 23
M  V30 41 1 30 31
M  V30 42 1 37 38
M  V30 END BOND
M  V30 END CTAB
M  END
>  <Molecule ChEMBL ID>
CHEMBL403847

>  <Smiles>
COc1ccc(N2C(=O)C(Cc3cccc(OCCc4nc(-c5ccccc5)oc4C)c3)C2C(=O)O)cc1

>  <IC50_nM>
160

>  <Assay Description>
Inhibition of PPARgamma

$$$$
CHEMBL191556
Actelion Java MolfileCreator 2.0

  0  0  0  0  0  0              0 V3000
M  V30 BEGIN CTAB
M  V30 COUNTS 33 35 0 0 0
M  V30 BEGIN ATOM
M  V30 1 O 9.7311 -4.1601 0.0 0
M  V30 2 C 9.2654 -2.7266 0.0 0
M  V30 3 N 10.1513 -1.5072 0.0 0
M  V30 4 C 7.8319 -2.2608 0.0 0
M  V30 5 O 9.2654 -0.2878 0.0 0
M  V30 6 C 11.6586 -1.5072 0.0 0
M  V30 7 C 7.8319 -0.7536 0.0 0
M  V30 8 C 6.5266 -3.0145 0.0 0
M  V30 9 C 12.4122 -2.8125 0.0 0
M  V30 10 C 12.4122 -0.2019 0.0 0
M  V30 11 C 6.5266 0.0 0.0 0
M  V30 12 C 5.2212 -2.2608 0.0 0
M  V30 13 C 5.2212 -0.7536 0.0 0
M  V30 14 C 6.5266 1.5072 0.0 0
M  V30 15 C 3.9567 -3.3046 0.0 0
M  V30 16 O 3.9159 0.0 0.0 0
M  V30 17 C 7.8319 2.2608 0.0 0
M  V30 18 C 3.9159 -4.5217 0.0 0
M  V30 19 C 2.6106 -0.7536 0.0 0 CFG=1
M  V30 20 C 9.1372 1.5072 0.0 0
M  V30 21 C 2.6106 -5.2754 0.0 0
M  V30 22 C 1.3053 0.0 0.0 0
M  V30 23 C 2.6106 -2.2608 0.0 0
M  V30 24 C 0.0 -0.7536 0.0 0
M  V30 25 C 1.3053 1.5072 0.0 0
M  V30 26 O 3.8926 -2.8484 0.0 0
M  V30 27 O 1.3053 -3.0145 0.0 0
M  V30 28 C -1.3053 0.0 0.0 0
M  V30 29 C 0.0 2.2608 0.0 0
M  V30 30 C -1.3053 1.5072 0.0 0
M  V30 31 C -2.6106 2.2608 0.0 0
M  V30 32 C -3.9159 1.5072 0.0 0
M  V30 33 C -2.6106 3.7681 0.0 0
M  V30 END ATOM
M  V30 BEGIN BOND
M  V30 1 2 1 2
M  V30 2 1 2 3
M  V30 3 1 2 4
M  V30 4 1 3 5
M  V30 5 1 3 6
M  V30 6 2 4 7
M  V30 7 1 4 8
M  V30 8 1 6 9
M  V30 9 1 6 10
M  V30 10 1 7 11
M  V30 11 2 8 12
M  V30 12 2 11 13
M  V30 13 1 11 14
M  V30 14 1 12 15
M  V30 15 1 13 16
M  V30 16 1 14 17
M  V30 17 1 15 18
M  V30 18 1 19 16 CFG=3
M  V30 19 1 17 20
M  V30 20 1 18 21
M  V30 21 1 19 22
M  V30 22 1 19 23
M  V30 23 2 22 24
M  V30 24 1 22 25
M  V30 25 2 23 26
M  V30 26 1 23 27
M  V30 27 1 24 28
M  V30 28 2 25 29
M  V30 29 2 28 30
M  V30 30 1 30 31
M  V30 31 1 31 32
M  V30 32 1 31 33
M  V30 33 1 5 7
M  V30 34 1 12 13
M  V30 35 1 29 30
M  V30 END BOND
M  V30 BEGIN COLLECTION
M  V30 MDLV30/STEABS ATOMS=(1 19)
M  V30 END COLLECTION
M  V30 END CTAB
M  END
>  <Molecule ChEMBL ID>
CHEMBL191556

>  <Smiles>
CCCc1cc2c(=O)n(C(C)C)oc2c(CCC)c1O[C@H](C(=O)O)c1ccc(C(C)C)cc1

>  <IC50_nM>
160

>  <Assay Description>
In vitro binding affinity for human PPAR gamma

$$$$
CHEMBL2331776
Actelion Java MolfileCreator 2.0

  0  0  0  0  0  0              0 V3000
M  V30 BEGIN CTAB
M  V30 COUNTS 30 32 0 0 0
M  V30 BEGIN ATOM
M  V30 1 Cl 11.6913 1.5 0.0 0
M  V30 2 C 10.3923 2.25 0.0 0
M  V30 3 C 10.3923 3.75 0.0 0
M  V30 4 C 9.0932 1.5 0.0 0
M  V30 5 N 9.0932 4.5 0.0 0
M  V30 6 C 7.7942 2.25 0.0 0
M  V30 7 C 7.7942 3.75 0.0 0
M  V30 8 O 6.4951 1.5 0.0 0
M  V30 9 C 6.4951 0.0 0.0 0
M  V30 10 C 5.1961 -0.75 0.0 0
M  V30 11 C 7.7942 -0.75 0.0 0
M  V30 12 C 3.8971 0.0 0.0 0
M  V30 13 C 5.1961 -2.25 0.0 0
M  V30 14 C 7.7942 -2.25 0.0 0
M  V30 15 O 3.8971 1.5 0.0 0
M  V30 16 N 2.598 -0.75 0.0 0
M  V30 17 C 6.4951 -3.0 0.0 0
M  V30 18 C 1.299 0.0 0.0 0
M  V30 19 N 6.4951 -4.5 0.0 0
M  V30 20 C 0.0 -0.75 0.0 0
M  V30 21 S 5.1961 -5.25 0.0 0
M  V30 22 O 4.4461 -3.9509 0.0 0
M  V30 23 O 3.6961 -5.25 0.0 0
M  V30 24 C 5.1961 -6.75 0.0 0
M  V30 25 C 3.8971 -7.5 0.0 0
M  V30 26 C 6.4951 -7.5 0.0 0
M  V30 27 C 3.8971 -9.0 0.0 0
M  V30 28 C 6.4951 -9.0 0.0 0
M  V30 29 C 5.1961 -9.75 0.0 0
M  V30 30 Cl 5.1961 -11.25 0.0 0
M  V30 END ATOM
M  V30 BEGIN BOND
M  V30 1 1 1 2
M  V30 2 2 2 3
M  V30 3 1 2 4
M  V30 4 1 3 5
M  V30 5 2 4 6
M  V30 6 2 5 7
M  V30 7 1 6 8
M  V30 8 1 8 9
M  V30 9 2 9 10
M  V30 10 1 9 11
M  V30 11 1 10 12
M  V30 12 1 10 13
M  V30 13 2 11 14
M  V30 14 2 12 15
M  V30 15 1 12 16
M  V30 16 2 13 17
M  V30 17 1 16 18
M  V30 18 1 17 19
M  V30 19 1 18 20
M  V30 20 1 19 21
M  V30 21 2 21 22
M  V30 22 2 21 23
M  V30 23 1 21 24
M  V30 24 2 24 25
M  V30 25 1 24 26
M  V30 26 1 25 27
M  V30 27 2 26 28
M  V30 28 2 27 29
M  V30 29 1 29 30
M  V30 30 1 6 7
M  V30 31 1 14 17
M  V30 32 1 28 29
M  V30 END BOND
M  V30 END CTAB
M  END
>  <Molecule ChEMBL ID>
CHEMBL2331776

>  <Smiles>
CCNC(=O)c1cc(NS(=O)(=O)c2ccc(Cl)cc2)ccc1Oc1cncc(Cl)c1

>  <IC50_nM>
160

>  <Assay Description>
Displacement of [3H]-rosiglitazone from GST-tagged PPARgammaLBD (unknown origin) after 1 hr by scintillation proximity assay

$$$$
CHEMBL5070753
Actelion Java MolfileCreator 2.0

  0  0  0  0  0  0              0 V3000
M  V30 BEGIN CTAB
M  V30 COUNTS 30 33 0 0 0
M  V30 BEGIN ATOM
M  V30 1 Cl 3.8971 -4.5 0.0 0
M  V30 2 C 3.8971 -3.0 0.0 0
M  V30 3 C 5.1961 -2.25 0.0 0
M  V30 4 C 2.598 -2.25 0.0 0
M  V30 5 Cl 6.4951 -3.0 0.0 0
M  V30 6 C 5.1961 -0.75 0.0 0
M  V30 7 C 2.598 -0.75 0.0 0
M  V30 8 C 3.8971 0.0 0.0 0
M  V30 9 C 1.299 0.0 0.0 0
M  V30 10 N 0.0 -0.75 0.0 0
M  V30 11 N -1.299 0.0 0.0 0
M  V30 12 C 0.0 -2.25 0.0 0
M  V30 13 C -2.598 -0.7499 0.0 0
M  V30 14 O 1.299 -3.0 0.0 0
M  V30 15 C -1.299 -2.9999 0.0 0
M  V30 16 C -2.598 -2.2499 0.0 0
M  V30 17 C -3.8971 0.0 0.0 0
M  V30 18 C -1.299 -4.4999 0.0 0
M  V30 19 C -3.8971 -2.9999 0.0 0
M  V30 20 O -3.8971 1.5 0.0 0
M  V30 21 O -5.1961 -0.7499 0.0 0
M  V30 22 C -2.598 -5.2499 0.0 0
M  V30 23 C -3.8971 -4.4999 0.0 0
M  V30 24 O -2.598 -6.7499 0.0 0
M  V30 25 C -1.299 -7.4999 0.0 0
M  V30 26 C -1.299 -9.0 0.0 0
M  V30 27 C 0.0 -6.75 0.0 0
M  V30 28 C 0.0 -9.75 0.0 0
M  V30 29 C 1.299 -7.5 0.0 0
M  V30 30 C 1.299 -9.0 0.0 0
M  V30 END ATOM
M  V30 BEGIN BOND
M  V30 1 1 1 2
M  V30 2 2 2 3
M  V30 3 1 2 4
M  V30 4 1 3 5
M  V30 5 1 3 6
M  V30 6 2 4 7
M  V30 7 2 6 8
M  V30 8 1 7 9
M  V30 9 1 9 10
M  V30 10 1 10 11
M  V30 11 1 10 12
M  V30 12 2 11 13
M  V30 13 2 12 14
M  V30 14 1 12 15
M  V30 15 1 13 16
M  V30 16 1 13 17
M  V30 17 1 15 18
M  V30 18 1 16 19
M  V30 19 2 17 20
M  V30 20 1 17 21
M  V30 21 2 18 22
M  V30 22 2 19 23
M  V30 23 1 22 24
M  V30 24 1 24 25
M  V30 25 2 25 26
M  V30 26 1 25 27
M  V30 27 1 26 28
M  V30 28 2 27 29
M  V30 29 2 28 30
M  V30 30 1 7 8
M  V30 31 2 15 16
M  V30 32 1 22 23
M  V30 33 1 29 30
M  V30 END BOND
M  V30 END CTAB
M  END
>  <Molecule ChEMBL ID>
CHEMBL5070753

>  <Smiles>
O=C(O)c1nn(Cc2ccc(Cl)c(Cl)c2)c(=O)c2cc(Oc3ccccc3)ccc12

>  <IC50_nM>
160

>  <Assay Description>
Inhibition of PPARgamma (unknown origin) phosphorylation at pS273 residue

$$$$
CHEMBL253120
Actelion Java MolfileCreator 2.0

  0  0  0  0  0  0              0 V3000
M  V30 BEGIN CTAB
M  V30 COUNTS 32 35 0 0 0
M  V30 BEGIN ATOM
M  V30 1 Cl 3.8971 9.0 0.0 0
M  V30 2 C 5.1961 8.25 0.0 0
M  V30 3 C 5.1961 6.75 0.0 0
M  V30 4 C 6.4951 9.0 0.0 0
M  V30 5 O 3.8971 6.0 0.0 0
M  V30 6 C 6.4951 6.0 0.0 0
M  V30 7 C 7.7942 8.25 0.0 0
M  V30 8 C 6.4951 10.5 0.0 0
M  V30 9 C 2.598 6.75 0.0 0
M  V30 10 C 6.4951 4.5 0.0 0
M  V30 11 C 7.7942 6.75 0.0 0
M  V30 12 C 5.1961 3.75 0.0 0
M  V30 13 C 7.7942 3.75 0.0 0
M  V30 14 C 9.0932 6.0 0.0 0
M  V30 15 O 3.8971 4.5 0.0 0
M  V30 16 C 5.1961 2.25 0.0 0
M  V30 17 C 7.7942 2.25 0.0 0
M  V30 18 C 9.0932 4.5 0.0 0
M  V30 19 C 6.4951 1.5 0.0 0
M  V30 20 C 3.8971 1.5 0.0 0
M  V30 21 O 9.0932 1.5 0.0 0
M  V30 22 O 10.3923 3.75 0.0 0
M  V30 23 C 6.4951 0.0 0.0 0
M  V30 24 C 3.8971 0.0 0.0 0
M  V30 25 O 7.7942 -0.75 0.0 0
M  V30 26 C 5.1961 -0.75 0.0 0
M  V30 27 C 2.598 -0.75 0.0 0
M  V30 28 C 5.1961 -2.25 0.0 0
M  V30 29 O 2.598 -2.25 0.0 0
M  V30 30 O 1.299 0.0 0.0 0
M  V30 31 C 6.4951 -3.0 0.0 0
M  V30 32 C 0.0 -0.75 0.0 0
M  V30 END ATOM
M  V30 BEGIN BOND
M  V30 1 1 1 2
M  V30 2 2 2 3
M  V30 3 1 2 4
M  V30 4 1 3 5
M  V30 5 1 3 6
M  V30 6 2 4 7
M  V30 7 1 4 8
M  V30 8 1 5 9
M  V30 9 2 6 10
M  V30 10 1 6 11
M  V30 11 1 10 12
M  V30 12 1 10 13
M  V30 13 2 11 14
M  V30 14 2 12 15
M  V30 15 1 12 16
M  V30 16 1 13 17
M  V30 17 2 13 18
M  V30 18 2 16 19
M  V30 19 1 16 20
M  V30 20 2 17 21
M  V30 21 1 18 22
M  V30 22 1 19 23
M  V30 23 2 20 24
M  V30 24 1 23 25
M  V30 25 2 23 26
M  V30 26 1 24 27
M  V30 27 1 26 28
M  V30 28 2 27 29
M  V30 29 1 27 30
M  V30 30 1 28 31
M  V30 31 1 30 32
M  V30 32 1 7 11
M  V30 33 1 14 18
M  V30 34 1 17 19
M  V30 35 1 24 26
M  V30 END BOND
M  V30 END CTAB
M  END
>  <Molecule ChEMBL ID>
CHEMBL253120

>  <Smiles>
CCc1c(C(=O)OC)cc2c(c1O)C(=O)c1c(O)cc3cc(C)c(Cl)c(OC)c3c1C2=O

>  <IC50_nM>
160

>  <Assay Description>
Antagonist activity at human PPARgamma receptor assessed as rosiglitazone-induced receptor activation by alphascreen assay

$$$$
CHEMBL474157
Actelion Java MolfileCreator 2.0

  0  0  0  0  0  0              0 V3000
M  V30 BEGIN CTAB
M  V30 COUNTS 36 40 0 0 0
M  V30 BEGIN ATOM
M  V30 1 O 9.0007 1.1939 0.0 0
M  V30 2 C 8.0496 0.8848 0.0 0
M  V30 3 O 7.3065 1.554 0.0 0
M  V30 4 C 7.8417 -0.0932 0.0 0
M  V30 5 C 6.9282 -0.5 0.0 0
M  V30 6 C 8.5108 -0.8364 0.0 0
M  V30 7 C 7.0327 -1.4945 0.0 0
M  V30 8 C 6.0621 0.0 0.0 0
M  V30 9 N 8.0108 -1.7024 0.0 0
M  V30 10 C 5.1961 -0.5 0.0 0
M  V30 11 C 8.4176 -2.6159 0.0 0
M  V30 12 C 4.3301 0.0 0.0 0
M  V30 13 C 5.1961 -1.4999 0.0 0
M  V30 14 C 7.8298 -3.4249 0.0 0
M  V30 15 C 9.4121 -2.7205 0.0 0
M  V30 16 C 3.4641 -0.5 0.0 0
M  V30 17 C 4.3301 -1.9999 0.0 0
M  V30 18 C 8.2365 -4.3385 0.0 0
M  V30 19 C 9.8188 -3.634 0.0 0
M  V30 20 O 2.598 0.0 0.0 0
M  V30 21 C 3.4641 -1.4999 0.0 0
M  V30 22 C 9.231 -4.443 0.0 0
M  V30 23 C 1.732 -0.5 0.0 0
M  V30 24 C 0.866 0.0 0.0 0
M  V30 25 C 0.0 -0.5 0.0 0
M  V30 26 N -0.9135 -0.0932 0.0 0
M  V30 27 C -0.1045 -1.4945 0.0 0
M  V30 28 C -1.5826 -0.8364 0.0 0
M  V30 29 O -1.0826 -1.7024 0.0 0
M  V30 30 C 0.6386 -2.1636 0.0 0
M  V30 31 C -2.5771 -0.7318 0.0 0
M  V30 32 C -2.9839 0.1816 0.0 0
M  V30 33 C -3.1649 -1.5408 0.0 0
M  V30 34 C -3.9784 0.2861 0.0 0
M  V30 35 C -4.1595 -1.4363 0.0 0
M  V30 36 C -4.5662 -0.5228 0.0 0
M  V30 END ATOM
M  V30 BEGIN BOND
M  V30 1 2 1 2
M  V30 2 1 2 3
M  V30 3 1 2 4
M  V30 4 1 4 5
M  V30 5 2 4 6
M  V30 6 2 5 7
M  V30 7 1 5 8
M  V30 8 1 6 9
M  V30 9 1 8 10
M  V30 10 1 9 11
M  V30 11 2 10 12
M  V30 12 1 10 13
M  V30 13 2 11 14
M  V30 14 1 11 15
M  V30 15 1 12 16
M  V30 16 2 13 17
M  V30 17 1 14 18
M  V30 18 2 15 19
M  V30 19 1 16 20
M  V30 20 2 16 21
M  V30 21 2 18 22
M  V30 22 1 20 23
M  V30 23 1 23 24
M  V30 24 1 24 25
M  V30 25 1 25 26
M  V30 26 2 25 27
M  V30 27 2 26 28
M  V30 28 1 27 29
M  V30 29 1 27 30
M  V30 30 1 28 31
M  V30 31 2 31 32
M  V30 32 1 31 33
M  V30 33 1 32 34
M  V30 34 2 33 35
M  V30 35 2 34 36
M  V30 36 1 7 9
M  V30 37 1 17 21
M  V30 38 1 19 22
M  V30 39 1 28 29
M  V30 40 1 35 36
M  V30 END BOND
M  V30 END CTAB
M  END
>  <Molecule ChEMBL ID>
CHEMBL474157

>  <Smiles>
Cc1oc(-c2ccccc2)nc1CCOc1cccc(Cc2cn(-c3ccccc3)cc2C(=O)O)c1

>  <IC50_nM>
160

>  <Assay Description>
Binding affinity to PPARgamma by fluorescence polarization assay

$$$$
CHEMBL223349
Actelion Java MolfileCreator 2.0

  0  0  0  0  0  0              0 V3000
M  V30 BEGIN CTAB
M  V30 COUNTS 38 41 0 0 0
M  V30 BEGIN ATOM
M  V30 1 O 7.7942 3.0 0.0 0
M  V30 2 C 6.9282 2.4999 0.0 0
M  V30 3 O 6.0621 3.0 0.0 0
M  V30 4 C 6.9282 1.5 0.0 0
M  V30 5 C 6.0621 1.0 0.0 0
M  V30 6 C 6.0621 0.0 0.0 0
M  V30 7 C 5.1961 -0.5 0.0 0
M  V30 8 C 6.9282 -0.4999 0.0 0
M  V30 9 C 5.1961 -1.4999 0.0 0
M  V30 10 C 4.3301 0.0 0.0 0
M  V30 11 C 6.9282 -1.4999 0.0 0
M  V30 12 C 6.0621 -1.9999 0.0 0
M  V30 13 N 3.4641 -0.5 0.0 0
M  V30 14 O 6.0621 -2.9999 0.0 0
M  V30 15 C 2.598 0.0 0.0 0
M  V30 16 C 6.9282 -3.4999 0.0 0
M  V30 17 O 2.598 1.0 0.0 0
M  V30 18 C 1.732 -0.5 0.0 0
M  V30 19 C 6.9282 -4.4999 0.0 0
M  V30 20 C 0.866 0.0 0.0 0
M  V30 21 C 7.7942 -4.9999 0.0 0
M  V30 22 C 0.0 -0.5 0.0 0
M  V30 23 N 7.8987 -5.9945 0.0 0
M  V30 24 C 8.7077 -4.5932 0.0 0
M  V30 25 C -0.866 0.0 0.0 0
M  V30 26 C 0.0 -1.4999 0.0 0
M  V30 27 C 8.8769 -6.2024 0.0 0
M  V30 28 O 9.3769 -5.3364 0.0 0
M  V30 29 C 8.9156 -3.6151 0.0 0
M  V30 30 C -1.732 -0.4999 0.0 0
M  V30 31 C -0.866 -1.9999 0.0 0
M  V30 32 C 9.2836 -7.1159 0.0 0
M  V30 33 C -1.732 -1.4999 0.0 0
M  V30 34 C 8.6958 -7.9249 0.0 0
M  V30 35 C 10.2781 -7.2205 0.0 0
M  V30 36 C 9.1025 -8.8385 0.0 0
M  V30 37 C 10.6848 -8.134 0.0 0
M  V30 38 C 10.0971 -8.943 0.0 0
M  V30 END ATOM
M  V30 BEGIN BOND
M  V30 1 2 1 2
M  V30 2 1 2 3
M  V30 3 1 2 4
M  V30 4 1 4 5
M  V30 5 1 5 6
M  V30 6 2 6 7
M  V30 7 1 6 8
M  V30 8 1 7 9
M  V30 9 1 7 10
M  V30 10 2 8 11
M  V30 11 2 9 12
M  V30 12 1 10 13
M  V30 13 1 12 14
M  V30 14 1 13 15
M  V30 15 1 14 16
M  V30 16 2 15 17
M  V30 17 1 15 18
M  V30 18 1 16 19
M  V30 19 1 18 20
M  V30 20 1 19 21
M  V30 21 1 20 22
M  V30 22 1 21 23
M  V30 23 2 21 24
M  V30 24 2 22 25
M  V30 25 1 22 26
M  V30 26 2 23 27
M  V30 27 1 24 28
M  V30 28 1 24 29
M  V30 29 1 25 30
M  V30 30 2 26 31
M  V30 31 1 27 32
M  V30 32 2 30 33
M  V30 33 2 32 34
M  V30 34 1 32 35
M  V30 35 1 34 36
M  V30 36 2 35 37
M  V30 37 2 36 38
M  V30 38 1 11 12
M  V30 39 1 27 28
M  V30 40 1 31 33
M  V30 41 1 37 38
M  V30 END BOND
M  V30 END CTAB
M  END
>  <Molecule ChEMBL ID>
CHEMBL223349

>  <Smiles>
Cc1oc(-c2ccccc2)nc1CCOc1ccc(CCC(=O)O)c(CNC(=O)CCc2ccccc2)c1

>  <IC50_nM>
161

>  <Assay Description>
Displacement of [3H]2-methyl-2-(4-{3-propyl-(5-pyridin-2yl-thiophene-2-sulfonyl)-amino]-pro-pyl}-phenoxy)-propionic acid from human PPARgamma

$$$$
CHEMBL1946568
Actelion Java MolfileCreator 2.0

  0  0  0  0  0  0              0 V3000
M  V30 BEGIN CTAB
M  V30 COUNTS 38 41 0 0 0
M  V30 BEGIN ATOM
M  V30 1 Cl 4.3301 0.9999 0.0 0
M  V30 2 C 4.3301 0.0 0.0 0
M  V30 3 C 3.4641 -0.5 0.0 0
M  V30 4 C 5.1961 -0.5 0.0 0
M  V30 5 O 2.598 0.0 0.0 0
M  V30 6 C 3.4641 -1.5 0.0 0
M  V30 7 C 5.1961 -1.5 0.0 0
M  V30 8 C 1.732 -0.5 0.0 0 CFG=1
M  V30 9 C 4.3301 -2.0 0.0 0
M  V30 10 C 0.866 0.0 0.0 0
M  V30 11 C 1.732 -1.5 0.0 0
M  V30 12 C 4.3301 -3.0 0.0 0
M  V30 13 O 0.866 1.0 0.0 0
M  V30 14 O 0.0 -0.5 0.0 0
M  V30 15 N 5.1961 -3.5 0.0 0
M  V30 16 C 5.3006 -4.4945 0.0 0
M  V30 17 C 6.1096 -3.0932 0.0 0
M  V30 18 O 4.5575 -5.1636 0.0 0
M  V30 19 N 6.2788 -4.7024 0.0 0
M  V30 20 C 6.7788 -3.8364 0.0 0
M  V30 21 C 6.4187 -2.1422 0.0 0
M  V30 22 C 6.6855 -5.6159 0.0 0
M  V30 23 C 7.7569 -3.6284 0.0 0
M  V30 24 C 7.3968 -1.9342 0.0 0
M  V30 25 C 6.0977 -6.4249 0.0 0
M  V30 26 C 7.68 -5.7205 0.0 0
M  V30 27 C 8.0659 -2.6774 0.0 0
M  V30 28 C 7.7058 -0.9832 0.0 0
M  V30 29 C 6.5045 -7.3385 0.0 0
M  V30 30 C 8.0868 -6.634 0.0 0
M  V30 31 F 6.7548 -0.6742 0.0 0
M  V30 32 F 8.0148 -0.0321 0.0 0
M  V30 33 F 8.6569 -1.2922 0.0 0
M  V30 34 C 7.499 -7.443 0.0 0
M  V30 35 C 7.9057 -8.3566 0.0 0
M  V30 36 C 8.8193 -7.9498 0.0 0
M  V30 37 C 8.3125 -9.2701 0.0 0
M  V30 38 C 6.9922 -8.7633 0.0 0
M  V30 END ATOM
M  V30 BEGIN BOND
M  V30 1 1 1 2
M  V30 2 2 2 3
M  V30 3 1 2 4
M  V30 4 1 3 5
M  V30 5 1 3 6
M  V30 6 2 4 7
M  V30 7 1 5 8
M  V30 8 2 6 9
M  V30 9 1 8 10
M  V30 10 1 8 11 CFG=3
M  V30 11 1 9 12
M  V30 12 2 10 13
M  V30 13 1 10 14
M  V30 14 1 12 15
M  V30 15 1 15 16
M  V30 16 1 15 17
M  V30 17 2 16 18
M  V30 18 1 16 19
M  V30 19 2 17 20
M  V30 20 1 17 21
M  V30 21 1 19 22
M  V30 22 1 20 23
M  V30 23 2 21 24
M  V30 24 2 22 25
M  V30 25 1 22 26
M  V30 26 2 23 27
M  V30 27 1 24 28
M  V30 28 1 25 29
M  V30 29 2 26 30
M  V30 30 1 28 31
M  V30 31 1 28 32
M  V30 32 1 28 33
M  V30 33 2 29 34
M  V30 34 1 34 35
M  V30 35 1 35 36
M  V30 36 1 35 37
M  V30 37 1 35 38
M  V30 38 1 7 9
M  V30 39 1 19 20
M  V30 40 1 24 27
M  V30 41 1 30 34
M  V30 END BOND
M  V30 BEGIN COLLECTION
M  V30 MDLV30/STEABS ATOMS=(1 8)
M  V30 END COLLECTION
M  V30 END CTAB
M  END
>  <Molecule ChEMBL ID>
CHEMBL1946568

>  <Smiles>
C[C@@H](Oc1cc(Cn2c(=O)n(-c3ccc(C(C)(C)C)cc3)c3ccc(C(F)(F)F)cc32)ccc1Cl)C(=O)O

>  <IC50_nM>
161

>  <Assay Description>
Binding affinity to human PPARgamma by scintillation proximity assay

$$$$
CHEMBL1088911
Actelion Java MolfileCreator 2.0

  0  0  0  0  0  0              0 V3000
M  V30 BEGIN CTAB
M  V30 COUNTS 38 41 0 0 0
M  V30 BEGIN ATOM
M  V30 1 Cl 11.6229 5.9182 0.0 0
M  V30 2 C 10.6284 6.0228 0.0 0
M  V30 3 C 10.2216 6.9363 0.0 0
M  V30 4 C 10.0406 5.2138 0.0 0
M  V30 5 C 9.2271 7.0408 0.0 0
M  V30 6 C 9.0461 5.3183 0.0 0
M  V30 7 C 8.6393 6.2318 0.0 0
M  V30 8 C 7.6448 6.3364 0.0 0
M  V30 9 O 7.1448 7.2024 0.0 0
M  V30 10 N 6.9757 5.5932 0.0 0
M  V30 11 C 6.1667 6.9945 0.0 0
M  V30 12 C 6.0621 6.0 0.0 0
M  V30 13 C 5.4235 7.6636 0.0 0
M  V30 14 C 5.1961 5.5 0.0 0
M  V30 15 C 5.1961 4.5 0.0 0
M  V30 16 O 4.3301 4.0 0.0 0
M  V30 17 C 4.3301 3.0 0.0 0
M  V30 18 C 3.4641 2.5 0.0 0
M  V30 19 C 5.1961 2.5 0.0 0
M  V30 20 C 3.4641 1.5 0.0 0
M  V30 21 C 5.1961 1.5 0.0 0
M  V30 22 C 4.3301 1.0 0.0 0
M  V30 23 C 2.598 1.0 0.0 0
M  V30 24 N 2.598 0.0 0.0 0
M  V30 25 C 3.4641 -0.5 0.0 0
M  V30 26 C 1.732 -0.5 0.0 0
M  V30 27 O 3.4641 -1.5 0.0 0
M  V30 28 O 4.3301 0.0 0.0 0
M  V30 29 C 0.866 0.0 0.0 0
M  V30 30 C 5.1961 -0.5 0.0 0
M  V30 31 O 0.866 1.0 0.0 0
M  V30 32 O 0.0 -0.5 0.0 0
M  V30 33 C 5.1961 -1.5 0.0 0
M  V30 34 C 6.0621 0.0 0.0 0
M  V30 35 C 6.0621 -2.0 0.0 0
M  V30 36 C 6.9282 -0.5 0.0 0
M  V30 37 C 6.9282 -1.5 0.0 0
M  V30 38 C 7.7942 -2.0 0.0 0
M  V30 END ATOM
M  V30 BEGIN BOND
M  V30 1 1 1 2
M  V30 2 2 2 3
M  V30 3 1 2 4
M  V30 4 1 3 5
M  V30 5 2 4 6
M  V30 6 2 5 7
M  V30 7 1 7 8
M  V30 8 1 8 9
M  V30 9 2 8 10
M  V30 10 1 9 11
M  V30 11 1 10 12
M  V30 12 1 11 13
M  V30 13 1 12 14
M  V30 14 1 14 15
M  V30 15 1 15 16
M  V30 16 1 16 17
M  V30 17 2 17 18
M  V30 18 1 17 19
M  V30 19 1 18 20
M  V30 20 2 19 21
M  V30 21 2 20 22
M  V30 22 1 20 23
M  V30 23 1 23 24
M  V30 24 1 24 25
M  V30 25 1 24 26
M  V30 26 2 25 27
M  V30 27 1 25 28
M  V30 28 1 26 29
M  V30 29 1 28 30
M  V30 30 2 29 31
M  V30 31 1 29 32
M  V30 32 2 30 33
M  V30 33 1 30 34
M  V30 34 1 33 35
M  V30 35 2 34 36
M  V30 36 2 35 37
M  V30 37 1 37 38
M  V30 38 1 6 7
M  V30 39 2 11 12
M  V30 40 1 21 22
M  V30 41 1 36 37
M  V30 END BOND
M  V30 END CTAB
M  END
>  <Molecule ChEMBL ID>
CHEMBL1088911

>  <Smiles>
Cc1ccc(OC(=O)N(CC(=O)O)Cc2cccc(OCCc3nc(-c4ccc(Cl)cc4)oc3C)c2)cc1

>  <IC50_nM>
162

>  <Assay Description>
Binding affinity to human His-tagged PPARgamma LBD (Q203-Y477) expressed in Escherichia coli BL21 (DE3) by fluorescence polarization assay

$$$$
CHEMBL3695854
Actelion Java MolfileCreator 2.0

  0  0  0  0  0  0              0 V3000
M  V30 BEGIN CTAB
M  V30 COUNTS 37 41 0 0 0
M  V30 BEGIN ATOM
M  V30 1 Br 6.0621 -1.9999 0.0 0
M  V30 2 C 5.1961 -1.4999 0.0 0
M  V30 3 C 5.1961 -0.5 0.0 0
M  V30 4 C 4.3301 -1.9999 0.0 0
M  V30 5 C 4.3301 0.0 0.0 0
M  V30 6 C 3.4641 -1.5 0.0 0
M  V30 7 C 3.4641 -0.5 0.0 0
M  V30 8 C 2.598 0.0 0.0 0 CFG=1
M  V30 9 N 1.732 -0.5 0.0 0
M  V30 10 C 2.598 1.0 0.0 0
M  V30 11 C 0.866 0.0 0.0 0
M  V30 12 O 0.866 1.0 0.0 0
M  V30 13 C 0.0 -0.5 0.0 0
M  V30 14 C 0.0 -1.4999 0.0 0
M  V30 15 C -0.866 0.0 0.0 0
M  V30 16 C -0.866 -1.9999 0.0 0
M  V30 17 C -1.732 -0.4999 0.0 0
M  V30 18 C -1.732 -1.4999 0.0 0
M  V30 19 C -1.0739 -2.9781 0.0 0
M  V30 20 N -2.4751 -2.1691 0.0 0
M  V30 21 C -2.0684 -3.0826 0.0 0
M  V30 22 C -3.4533 -1.9612 0.0 0
M  V30 23 C -4.1224 -2.7043 0.0 0
M  V30 24 C -5.1006 -2.4964 0.0 0
M  V30 25 C -3.8134 -3.6554 0.0 0
M  V30 26 C -5.7697 -3.2395 0.0 0
M  V30 27 C -4.4825 -4.3985 0.0 0
M  V30 28 C -5.4607 -4.1906 0.0 0
M  V30 29 C -6.1298 -4.9337 0.0 0
M  V30 30 C -7.108 -4.7258 0.0 0
M  V30 31 C -5.8208 -5.8848 0.0 0
M  V30 32 C -7.417 -3.7748 0.0 0
M  V30 33 C -7.7771 -5.469 0.0 0
M  V30 34 C -6.4899 -6.6279 0.0 0
M  V30 35 O -6.7478 -3.0316 0.0 0
M  V30 36 O -8.3951 -3.5669 0.0 0
M  V30 37 C -7.4681 -6.42 0.0 0
M  V30 END ATOM
M  V30 BEGIN BOND
M  V30 1 1 1 2
M  V30 2 2 2 3
M  V30 3 1 2 4
M  V30 4 1 3 5
M  V30 5 2 4 6
M  V30 6 2 5 7
M  V30 7 1 7 8
M  V30 8 1 8 9
M  V30 9 1 8 10 CFG=1
M  V30 10 1 9 11
M  V30 11 2 11 12
M  V30 12 1 11 13
M  V30 13 2 13 14
M  V30 14 1 13 15
M  V30 15 1 14 16
M  V30 16 2 15 17
M  V30 17 2 16 18
M  V30 18 1 16 19
M  V30 19 1 18 20
M  V30 20 2 19 21
M  V30 21 1 20 22
M  V30 22 1 22 23
M  V30 23 2 23 24
M  V30 24 1 23 25
M  V30 25 1 24 26
M  V30 26 2 25 27
M  V30 27 2 26 28
M  V30 28 1 28 29
M  V30 29 2 29 30
M  V30 30 1 29 31
M  V30 31 1 30 32
M  V30 32 1 30 33
M  V30 33 2 31 34
M  V30 34 2 32 35
M  V30 35 1 32 36
M  V30 36 2 33 37
M  V30 37 1 6 7
M  V30 38 1 17 18
M  V30 39 1 20 21
M  V30 40 1 27 28
M  V30 41 1 34 37
M  V30 END BOND
M  V30 BEGIN COLLECTION
M  V30 MDLV30/STEABS ATOMS=(1 8)
M  V30 END COLLECTION
M  V30 END CTAB
M  END
>  <Molecule ChEMBL ID>
CHEMBL3695854

>  <Smiles>
C[C@H](NC(=O)c1ccc2c(ccn2Cc2ccc(-c3ccccc3C(=O)O)cc2)c1)c1ccc(Br)cc1

>  <IC50_nM>
163

>  <Assay Description>
Lanthascreen Competitive Binding Assay: The assay was performed according to manufacturer protocol. A mixture of nM GST-PPARG-LBD, 5 nM Tb-GST-antibody, 5 nM Fluormone Pan-PPAR Green, and serial dilutions of the experimental compound, beginning at 10 ׬M downwards, was added to wells of black 384-well low-volume plates (Greiner) to a total volume of 18 ׬L. All dilutions were made in TR-FRET assay buffer C. DMSO at 2% final concentration was used as a no-ligand control. Experiment was performed in triplicate, and incubated for 2 hours in the dark prior to assay read in Perkin Elmer ViewLux ultra HTS microplate reader. FRET signal was measured by excitation at 340 nm and emission at 520 nm for fluorescein and 490 nm for terbium. Fold change over DMSO was calculated using GraphPad Prism Software (La Jolla, Calif.) by calculating 520 nm/490 nm ratio. Graphs were plotted as fold change of FRET signal for compound treatment over DMSO-only control.

$$$$
CHEMBL312717
Actelion Java MolfileCreator 2.0

  0  0  0  0  0  0              0 V3000
M  V30 BEGIN CTAB
M  V30 COUNTS 40 44 0 0 0
M  V30 BEGIN ATOM
M  V30 1 O 5.1961 -4.5 0.0 0
M  V30 2 C 5.1961 -3.4999 0.0 0
M  V30 3 O 4.3301 -2.9999 0.0 0
M  V30 4 C 6.0621 -3.0 0.0 0 CFG=1
M  V30 5 O 6.9282 -3.5 0.0 0
M  V30 6 C 6.0621 -1.9999 0.0 0
M  V30 7 C 6.0621 -4.0 0.0 0
M  V30 8 C 7.7942 -3.0 0.0 0
M  V30 9 C 5.1961 -1.4999 0.0 0
M  V30 10 C 7.7942 -2.0 0.0 0
M  V30 11 C 8.6602 -3.5 0.0 0
M  V30 12 C 5.1961 -0.5 0.0 0
M  V30 13 C 4.3301 -1.9999 0.0 0
M  V30 14 C 8.6602 -1.5 0.0 0
M  V30 15 C 9.5262 -3.0 0.0 0
M  V30 16 C 4.3301 0.0 0.0 0
M  V30 17 C 3.4641 -1.5 0.0 0
M  V30 18 C 9.5262 -2.0 0.0 0
M  V30 19 C 3.4641 -0.5 0.0 0
M  V30 20 O 2.598 0.0 0.0 0
M  V30 21 C 1.732 -0.5 0.0 0
M  V30 22 C 0.866 0.0 0.0 0
M  V30 23 C 0.0 -0.5 0.0 0
M  V30 24 N -0.9135 -0.0932 0.0 0
M  V30 25 C -0.1045 -1.4945 0.0 0
M  V30 26 C -1.5826 -0.8364 0.0 0
M  V30 27 O -1.0826 -1.7024 0.0 0
M  V30 28 C 0.6386 -2.1636 0.0 0
M  V30 29 C -2.5771 -0.7318 0.0 0
M  V30 30 C -2.9839 0.1816 0.0 0
M  V30 31 C -3.1649 -1.5408 0.0 0
M  V30 32 C -3.9784 0.2861 0.0 0
M  V30 33 C -4.1595 -1.4363 0.0 0
M  V30 34 C -4.5662 -0.5228 0.0 0
M  V30 35 C -5.5607 -0.4182 0.0 0
M  V30 36 C -5.9675 0.4952 0.0 0
M  V30 37 C -6.1485 -1.2273 0.0 0
M  V30 38 C -6.962 0.5997 0.0 0
M  V30 39 C -7.143 -1.1227 0.0 0
M  V30 40 C -7.5498 -0.2092 0.0 0
M  V30 END ATOM
M  V30 BEGIN BOND
M  V30 1 2 1 2
M  V30 2 1 2 3
M  V30 3 1 2 4
M  V30 4 1 4 5
M  V30 5 1 4 6
M  V30 6 1 4 7 CFG=1
M  V30 7 1 5 8
M  V30 8 1 6 9
M  V30 9 2 8 10
M  V30 10 1 8 11
M  V30 11 2 9 12
M  V30 12 1 9 13
M  V30 13 1 10 14
M  V30 14 2 11 15
M  V30 15 1 12 16
M  V30 16 2 13 17
M  V30 17 2 14 18
M  V30 18 2 16 19
M  V30 19 1 19 20
M  V30 20 1 20 21
M  V30 21 1 21 22
M  V30 22 1 22 23
M  V30 23 1 23 24
M  V30 24 2 23 25
M  V30 25 2 24 26
M  V30 26 1 25 27
M  V30 27 1 25 28
M  V30 28 1 26 29
M  V30 29 2 29 30
M  V30 30 1 29 31
M  V30 31 1 30 32
M  V30 32 2 31 33
M  V30 33 2 32 34
M  V30 34 1 34 35
M  V30 35 2 35 36
M  V30 36 1 35 37
M  V30 37 1 36 38
M  V30 38 2 37 39
M  V30 39 2 38 40
M  V30 40 1 15 18
M  V30 41 1 17 19
M  V30 42 1 26 27
M  V30 43 1 33 34
M  V30 44 1 39 40
M  V30 END BOND
M  V30 BEGIN COLLECTION
M  V30 MDLV30/STERAC1 ATOMS=(1 4)
M  V30 END COLLECTION
M  V30 END CTAB
M  END
>  <Molecule ChEMBL ID>
CHEMBL312717

>  <Smiles>
Cc1oc(-c2ccc(-c3ccccc3)cc2)nc1CCOc1ccc(CC(C)(Oc2ccccc2)C(=O)O)cc1

>  <IC50_nM>
169

>  <Assay Description>
Displacement of PPARgamma agonist from human PPAR gamma receptor

$$$$
CHEMBL94496
Actelion Java MolfileCreator 2.0

  0  0  0  0  0  0              0 V3000
M  V30 BEGIN CTAB
M  V30 COUNTS 37 40 0 0 0
M  V30 BEGIN ATOM
M  V30 1 S 8.7077 -0.4067 0.0 0
M  V30 2 C 9.3769 0.3364 0.0 0
M  V30 3 C 7.7942 0.0 0.0 0 CFG=2
M  V30 4 O 10.3714 0.2318 0.0 0
M  V30 5 N 8.8769 1.2024 0.0 0
M  V30 6 C 6.9282 -0.5 0.0 0
M  V30 7 C 7.8987 0.9945 0.0 0
M  V30 8 C 6.0621 0.0 0.0 0
M  V30 9 C 6.9282 -1.5 0.0 0
M  V30 10 O 7.1556 1.6636 0.0 0
M  V30 11 C 5.1961 -0.5 0.0 0
M  V30 12 C 6.0621 -2.0 0.0 0
M  V30 13 O 4.3301 0.0 0.0 0
M  V30 14 C 5.1961 -1.5 0.0 0
M  V30 15 C 3.4641 -0.5 0.0 0
M  V30 16 C 2.598 0.0 0.0 0
M  V30 17 C 1.732 -0.5 0.0 0
M  V30 18 O 0.866 0.0 0.0 0
M  V30 19 C 0.0 -0.5 0.0 0
M  V30 20 C -0.866 0.0 0.0 0
M  V30 21 C 0.0 -1.4999 0.0 0
M  V30 22 C -1.732 -0.4999 0.0 0
M  V30 23 C -0.866 1.0 0.0 0
M  V30 24 C -0.866 -1.9999 0.0 0
M  V30 25 C -1.732 -1.4999 0.0 0
M  V30 26 C 0.0 1.5 0.0 0
M  V30 27 O -2.598 -1.9999 0.0 0
M  V30 28 C 0.0 2.5 0.0 0
M  V30 29 C -2.598 -2.9999 0.0 0
M  V30 30 C -3.4641 -3.4999 0.0 0
M  V30 31 C -1.732 -3.4999 0.0 0
M  V30 32 C -3.4641 -4.4999 0.0 0
M  V30 33 C -1.732 -4.4999 0.0 0
M  V30 34 C -2.598 -4.9999 0.0 0
M  V30 35 C -2.598 -5.9999 0.0 0
M  V30 36 C -3.4641 -6.4999 0.0 0
M  V30 37 C -1.732 -6.4999 0.0 0
M  V30 END ATOM
M  V30 BEGIN BOND
M  V30 1 1 1 2
M  V30 2 1 1 3
M  V30 3 2 2 4
M  V30 4 1 2 5
M  V30 5 1 3 6 CFG=3
M  V30 6 1 3 7
M  V30 7 2 6 8
M  V30 8 1 6 9
M  V30 9 2 7 10
M  V30 10 1 8 11
M  V30 11 2 9 12
M  V30 12 1 11 13
M  V30 13 2 11 14
M  V30 14 1 13 15
M  V30 15 1 15 16
M  V30 16 1 16 17
M  V30 17 1 17 18
M  V30 18 1 18 19
M  V30 19 2 19 20
M  V30 20 1 19 21
M  V30 21 1 20 22
M  V30 22 1 20 23
M  V30 23 2 21 24
M  V30 24 2 22 25
M  V30 25 1 23 26
M  V30 26 1 25 27
M  V30 27 1 26 28
M  V30 28 1 27 29
M  V30 29 2 29 30
M  V30 30 1 29 31
M  V30 31 1 30 32
M  V30 32 2 31 33
M  V30 33 2 32 34
M  V30 34 1 34 35
M  V30 35 1 35 36
M  V30 36 1 35 37
M  V30 37 1 5 7
M  V30 38 1 12 14
M  V30 39 1 24 25
M  V30 40 1 33 34
M  V30 END BOND
M  V30 BEGIN COLLECTION
M  V30 MDLV30/STERAC1 ATOMS=(1 3)
M  V30 END COLLECTION
M  V30 END CTAB
M  END
>  <Molecule ChEMBL ID>
CHEMBL94496

>  <Smiles>
CCCc1cc(Oc2ccc(C(C)C)cc2)ccc1OCCCOc1cccc(C2SC(=O)NC2=O)c1

>  <IC50_nM>
170

>  <Assay Description>
In vitro binding affinity against human peroxisome proliferator activated receptor gamma

$$$$
CHEMBL1783037
Actelion Java MolfileCreator 2.0

  0  0  0  0  0  0              0 V3000
M  V30 BEGIN CTAB
M  V30 COUNTS 37 40 0 0 0
M  V30 BEGIN ATOM
M  V30 1 S 8.7077 -0.4067 0.0 0
M  V30 2 C 9.3769 0.3364 0.0 0
M  V30 3 C 7.7942 0.0 0.0 0 CFG=2
M  V30 4 O 10.3714 0.2318 0.0 0
M  V30 5 N 8.8769 1.2024 0.0 0
M  V30 6 C 6.9282 -0.5 0.0 0
M  V30 7 C 7.8987 0.9945 0.0 0
M  V30 8 C 6.0621 0.0 0.0 0
M  V30 9 C 6.9282 -1.5 0.0 0
M  V30 10 O 7.1556 1.6636 0.0 0
M  V30 11 C 5.1961 -0.5 0.0 0
M  V30 12 C 6.0621 -2.0 0.0 0
M  V30 13 O 4.3301 0.0 0.0 0
M  V30 14 C 5.1961 -1.5 0.0 0
M  V30 15 C 3.4641 -0.5 0.0 0
M  V30 16 C 2.598 0.0 0.0 0
M  V30 17 C 1.732 -0.5 0.0 0
M  V30 18 O 0.866 0.0 0.0 0
M  V30 19 C 0.0 -0.5 0.0 0
M  V30 20 C -0.866 0.0 0.0 0
M  V30 21 C 0.0 -1.4999 0.0 0
M  V30 22 C -1.732 -0.4999 0.0 0
M  V30 23 C -0.866 1.0 0.0 0
M  V30 24 C -0.866 -1.9999 0.0 0
M  V30 25 C -1.732 -1.4999 0.0 0
M  V30 26 C 0.0 1.5 0.0 0
M  V30 27 O -2.598 -1.9999 0.0 0
M  V30 28 C 0.0 2.5 0.0 0
M  V30 29 C -2.598 -2.9999 0.0 0
M  V30 30 C -3.4641 -3.4999 0.0 0
M  V30 31 C -1.732 -3.4999 0.0 0
M  V30 32 C -3.4641 -4.4999 0.0 0
M  V30 33 C -1.732 -4.4999 0.0 0
M  V30 34 C -2.598 -4.9999 0.0 0
M  V30 35 C -2.598 -5.9999 0.0 0
M  V30 36 C -3.4641 -6.4999 0.0 0
M  V30 37 C -1.732 -6.4999 0.0 0
M  V30 END ATOM
M  V30 BEGIN BOND
M  V30 1 1 1 2
M  V30 2 1 1 3
M  V30 3 2 2 4
M  V30 4 1 2 5
M  V30 5 1 3 6 CFG=3
M  V30 6 1 3 7
M  V30 7 2 6 8
M  V30 8 1 6 9
M  V30 9 2 7 10
M  V30 10 1 8 11
M  V30 11 2 9 12
M  V30 12 1 11 13
M  V30 13 2 11 14
M  V30 14 1 13 15
M  V30 15 1 15 16
M  V30 16 1 16 17
M  V30 17 1 17 18
M  V30 18 1 18 19
M  V30 19 2 19 20
M  V30 20 1 19 21
M  V30 21 1 20 22
M  V30 22 1 20 23
M  V30 23 2 21 24
M  V30 24 2 22 25
M  V30 25 1 23 26
M  V30 26 1 25 27
M  V30 27 1 26 28
M  V30 28 1 27 29
M  V30 29 2 29 30
M  V30 30 1 29 31
M  V30 31 1 30 32
M  V30 32 2 31 33
M  V30 33 2 32 34
M  V30 34 1 34 35
M  V30 35 1 35 36
M  V30 36 1 35 37
M  V30 37 1 5 7
M  V30 38 1 12 14
M  V30 39 1 24 25
M  V30 40 1 33 34
M  V30 END BOND
M  V30 BEGIN COLLECTION
M  V30 MDLV30/STEABS ATOMS=(1 3)
M  V30 END COLLECTION
M  V30 END CTAB
M  END
>  <Molecule ChEMBL ID>
CHEMBL1783037

>  <Smiles>
CCCc1cc(Oc2ccc(C(C)C)cc2)ccc1OCCCOc1cccc([C@H]2SC(=O)NC2=O)c1

>  <IC50_nM>
170

>  <Assay Description>
Displacement of radio-labeled full agonist from PPARgamma receptor

$$$$
CHEMBL383233
Actelion Java MolfileCreator 2.0

  0  0  0  0  0  0              0 V3000
M  V30 BEGIN CTAB
M  V30 COUNTS 35 39 0 0 0
M  V30 BEGIN ATOM
M  V30 1 S 2.598 -0.75 0.0 0
M  V30 2 O 1.848 -2.049 0.0 0
M  V30 3 O 3.348 -2.049 0.0 0
M  V30 4 N 1.299 0.0 0.0 0
M  V30 5 C 3.8971 0.0 0.0 0
M  V30 6 C 0.0 -0.75 0.0 0
M  V30 7 S 5.2674 -0.6101 0.0 0
M  V30 8 C 4.0539 1.4917 0.0 0
M  V30 9 N -1.3703 -0.1398 0.0 0
M  V30 10 C -0.1567 -2.2417 0.0 0
M  V30 11 C 6.2711 0.5046 0.0 0
M  V30 12 C 5.5211 1.8036 0.0 0
M  V30 13 N -2.374 -1.2546 0.0 0
M  V30 14 C -1.6821 1.3273 0.0 0
M  V30 15 C -1.624 -2.5536 0.0 0
M  V30 16 C 7.7629 0.3478 0.0 0
M  V30 17 C -0.5674 2.331 0.0 0
M  V30 18 C -3.1087 1.7908 0.0 0
M  V30 19 C -2.2341 -3.9239 0.0 0
M  V30 20 N 8.5129 -0.9512 0.0 0
M  V30 21 C 8.7666 1.4625 0.0 0
M  V30 22 C -0.8793 3.7982 0.0 0
M  V30 23 C -3.4206 3.258 0.0 0
M  V30 24 S -3.7013 -4.2358 0.0 0
M  V30 25 C -1.4841 -5.223 0.0 0
M  V30 26 O 9.9801 -0.6393 0.0 0
M  V30 27 C 10.1369 0.8524 0.0 0
M  V30 28 C -2.3059 4.2617 0.0 0
M  V30 29 C -3.8581 -5.7276 0.0 0
M  V30 30 C -2.4878 -6.3377 0.0 0
M  V30 31 C 11.4359 1.6024 0.0 0
M  V30 32 F -2.6177 5.7289 0.0 0
M  V30 33 F 10.6859 2.9014 0.0 0
M  V30 34 F 12.735 2.3524 0.0 0
M  V30 35 F 12.1859 0.3033 0.0 0
M  V30 END ATOM
M  V30 BEGIN BOND
M  V30 1 2 1 2
M  V30 2 2 1 3
M  V30 3 1 1 4
M  V30 4 1 1 5
M  V30 5 1 4 6
M  V30 6 1 5 7
M  V30 7 2 5 8
M  V30 8 1 6 9
M  V30 9 2 6 10
M  V30 10 1 7 11
M  V30 11 1 8 12
M  V30 12 1 9 13
M  V30 13 1 9 14
M  V30 14 1 10 15
M  V30 15 1 11 16
M  V30 16 2 14 17
M  V30 17 1 14 18
M  V30 18 1 15 19
M  V30 19 2 16 20
M  V30 20 1 16 21
M  V30 21 1 17 22
M  V30 22 2 18 23
M  V30 23 1 19 24
M  V30 24 2 19 25
M  V30 25 1 20 26
M  V30 26 2 21 27
M  V30 27 2 22 28
M  V30 28 1 24 29
M  V30 29 1 25 30
M  V30 30 1 27 31
M  V30 31 1 28 32
M  V30 32 1 31 33
M  V30 33 1 31 34
M  V30 34 1 31 35
M  V30 35 2 11 12
M  V30 36 2 13 15
M  V30 37 1 23 28
M  V30 38 1 26 27
M  V30 39 2 29 30
M  V30 END BOND
M  V30 END CTAB
M  END
>  <Molecule ChEMBL ID>
CHEMBL383233

>  <Smiles>
O=S(=O)(Nc1cc(-c2cccs2)nn1-c1ccc(F)cc1)c1ccc(-c2cc(C(F)(F)F)on2)s1

>  <IC50_nM>
175

>  <Assay Description>
Displacement of [3H]rosiglitazone from PPARgamma by SPA

$$$$
CHEMBL209546
Actelion Java MolfileCreator 2.0

  0  0  0  0  0  0              0 V3000
M  V30 BEGIN CTAB
M  V30 COUNTS 30 33 0 0 0
M  V30 BEGIN ATOM
M  V30 1 O 4.3301 0.0 0.0 0
M  V30 2 C 3.4641 -0.5 0.0 0
M  V30 3 O 3.4641 -1.5 0.0 0
M  V30 4 C 2.598 0.0 0.0 0 CFG=1
M  V30 5 O 1.732 -0.5 0.0 0
M  V30 6 C 2.598 1.0 0.0 0
M  V30 7 C 0.866 0.0 0.0 0
M  V30 8 C 1.732 1.5 0.0 0
M  V30 9 C 0.0 -0.5 0.0 0
M  V30 10 C 0.866 1.0 0.0 0
M  V30 11 C 1.732 2.5 0.0 0
M  V30 12 C 0.0 1.5 0.0 0
M  V30 13 C 0.866 3.0 0.0 0
M  V30 14 C 0.0 2.5 0.0 0
M  V30 15 C -0.951 1.1909 0.0 0
M  V30 16 N -0.951 2.809 0.0 0
M  V30 17 C -1.5388 2.0 0.0 0
M  V30 18 C -1.26 3.76 0.0 0
M  V30 19 C -2.2382 3.9679 0.0 0
M  V30 20 N -2.6449 4.8815 0.0 0
M  V30 21 C -2.9813 3.2988 0.0 0
M  V30 22 C -3.6394 4.777 0.0 0
M  V30 23 O -3.8473 3.7988 0.0 0
M  V30 24 C -2.8768 2.3043 0.0 0
M  V30 25 C -4.3086 5.5201 0.0 0
M  V30 26 C -3.9995 6.4712 0.0 0
M  V30 27 C -5.2867 5.3122 0.0 0
M  V30 28 C -4.6687 7.2143 0.0 0
M  V30 29 C -5.9558 6.0553 0.0 0
M  V30 30 C -5.6468 7.0064 0.0 0
M  V30 END ATOM
M  V30 BEGIN BOND
M  V30 1 2 1 2
M  V30 2 1 2 3
M  V30 3 1 2 4
M  V30 4 1 4 5 CFG=1
M  V30 5 1 4 6
M  V30 6 1 5 7
M  V30 7 1 6 8
M  V30 8 1 7 9
M  V30 9 2 8 10
M  V30 10 1 8 11
M  V30 11 1 10 12
M  V30 12 2 11 13
M  V30 13 2 12 14
M  V30 14 1 12 15
M  V30 15 1 14 16
M  V30 16 2 15 17
M  V30 17 1 16 18
M  V30 18 1 18 19
M  V30 19 1 19 20
M  V30 20 2 19 21
M  V30 21 2 20 22
M  V30 22 1 21 23
M  V30 23 1 21 24
M  V30 24 1 22 25
M  V30 25 2 25 26
M  V30 26 1 25 27
M  V30 27 1 26 28
M  V30 28 2 27 29
M  V30 29 2 28 30
M  V30 30 1 13 14
M  V30 31 1 16 17
M  V30 32 1 22 23
M  V30 33 1 29 30
M  V30 END BOND
M  V30 BEGIN COLLECTION
M  V30 MDLV30/STERAC1 ATOMS=(1 4)
M  V30 END COLLECTION
M  V30 END CTAB
M  END
>  <Molecule ChEMBL ID>
CHEMBL209546

>  <Smiles>
CCOC(Cc1ccc2c(ccn2Cc2nc(-c3ccccc3)oc2C)c1)C(=O)O

>  <IC50_nM>
178

>  <Assay Description>
Binding affinity to PPARgamma by radio ligand binding assay

$$$$
CHEMBL271739
Actelion Java MolfileCreator 2.0

  0  0  0  0  0  0              0 V3000
M  V30 BEGIN CTAB
M  V30 COUNTS 37 41 0 0 0
M  V30 BEGIN ATOM
M  V30 1 F 11.617 -3.2071 0.0 0
M  V30 2 C 10.751 -2.7071 0.0 0
M  V30 3 C 10.751 -1.7071 0.0 0
M  V30 4 C 9.8849 -3.2071 0.0 0
M  V30 5 C 9.8849 -1.2071 0.0 0
M  V30 6 C 9.0189 -2.7071 0.0 0
M  V30 7 C 9.0189 -1.7071 0.0 0
M  V30 8 N 8.1529 -1.2071 0.0 0
M  V30 9 C 7.8941 -0.2411 0.0 0
M  V30 10 C 7.187 -1.4659 0.0 0
M  V30 11 O 8.3941 0.6248 0.0 0
M  V30 12 C 6.9282 -0.5 0.0 0
M  V30 13 C 6.687 -2.3319 0.0 0
M  V30 14 C 6.0621 0.0 0.0 0
M  V30 15 O 5.687 -2.3319 0.0 0
M  V30 16 O 7.187 -3.1979 0.0 0
M  V30 17 C 5.1961 -0.5 0.0 0
M  V30 18 C 4.3301 0.0 0.0 0
M  V30 19 C 5.1961 -1.4999 0.0 0
M  V30 20 C 3.4641 -0.5 0.0 0
M  V30 21 C 4.3301 -1.9999 0.0 0
M  V30 22 O 2.598 0.0 0.0 0
M  V30 23 C 3.4641 -1.4999 0.0 0
M  V30 24 C 1.732 -0.5 0.0 0
M  V30 25 C 0.866 0.0 0.0 0
M  V30 26 C 0.0 -0.5 0.0 0
M  V30 27 N -0.9135 -0.0932 0.0 0
M  V30 28 C -0.1045 -1.4945 0.0 0
M  V30 29 C -1.5826 -0.8364 0.0 0
M  V30 30 O -1.0826 -1.7024 0.0 0
M  V30 31 C 0.6386 -2.1636 0.0 0
M  V30 32 C -2.5771 -0.7318 0.0 0
M  V30 33 C -2.9839 0.1816 0.0 0
M  V30 34 C -3.1649 -1.5408 0.0 0
M  V30 35 C -3.9784 0.2861 0.0 0
M  V30 36 C -4.1595 -1.4363 0.0 0
M  V30 37 C -4.5662 -0.5228 0.0 0
M  V30 END ATOM
M  V30 BEGIN BOND
M  V30 1 1 1 2
M  V30 2 2 2 3
M  V30 3 1 2 4
M  V30 4 1 3 5
M  V30 5 2 4 6
M  V30 6 2 5 7
M  V30 7 1 7 8
M  V30 8 1 8 9
M  V30 9 1 8 10
M  V30 10 2 9 11
M  V30 11 1 9 12
M  V30 12 1 10 13
M  V30 13 1 12 14
M  V30 14 2 13 15
M  V30 15 1 13 16
M  V30 16 1 14 17
M  V30 17 2 17 18
M  V30 18 1 17 19
M  V30 19 1 18 20
M  V30 20 2 19 21
M  V30 21 1 20 22
M  V30 22 2 20 23
M  V30 23 1 22 24
M  V30 24 1 24 25
M  V30 25 1 25 26
M  V30 26 1 26 27
M  V30 27 2 26 28
M  V30 28 2 27 29
M  V30 29 1 28 30
M  V30 30 1 28 31
M  V30 31 1 29 32
M  V30 32 2 32 33
M  V30 33 1 32 34
M  V30 34 1 33 35
M  V30 35 2 34 36
M  V30 36 2 35 37
M  V30 37 1 6 7
M  V30 38 1 10 12
M  V30 39 1 21 23
M  V30 40 1 29 30
M  V30 41 1 36 37
M  V30 END BOND
M  V30 END CTAB
M  END
>  <Molecule ChEMBL ID>
CHEMBL271739

>  <Smiles>
Cc1oc(-c2ccccc2)nc1CCOc1cccc(CC2C(=O)N(c3ccc(F)cc3)C2C(=O)O)c1

>  <IC50_nM>
180

>  <Assay Description>
Inhibition of PPARgamma

$$$$
CHEMBL50680
Actelion Java MolfileCreator 2.0

  0  0  0  0  0  0              0 V3000
M  V30 BEGIN CTAB
M  V30 COUNTS 39 43 0 0 0
M  V30 BEGIN ATOM
M  V30 1 S 7.8987 -2.9945 0.0 0
M  V30 2 C 8.8769 -3.2024 0.0 0
M  V30 3 C 7.7942 -2.0 0.0 0 CFG=2
M  V30 4 O 9.2836 -4.1159 0.0 0
M  V30 5 N 9.3769 -2.3364 0.0 0
M  V30 6 C 6.9282 -1.5 0.0 0
M  V30 7 C 8.7077 -1.5932 0.0 0
M  V30 8 C 6.9282 -0.5 0.0 0
M  V30 9 C 6.0621 -2.0 0.0 0
M  V30 10 O 8.9156 -0.6151 0.0 0
M  V30 11 C 6.0621 0.0 0.0 0
M  V30 12 C 5.1961 -1.5 0.0 0
M  V30 13 C 5.1961 -0.5 0.0 0
M  V30 14 O 4.3301 0.0 0.0 0
M  V30 15 C 3.4641 -0.5 0.0 0
M  V30 16 C 2.598 0.0 0.0 0
M  V30 17 C 1.732 -0.5 0.0 0
M  V30 18 O 0.866 0.0 0.0 0
M  V30 19 C 0.0 -0.5 0.0 0
M  V30 20 C -0.866 0.0 0.0 0
M  V30 21 C 0.0 -1.4999 0.0 0
M  V30 22 C -1.732 -0.4999 0.0 0
M  V30 23 C -0.866 1.0 0.0 0
M  V30 24 C -0.866 -1.9999 0.0 0
M  V30 25 C -1.732 -1.4999 0.0 0
M  V30 26 C 0.0 1.5 0.0 0
M  V30 27 O -2.598 -1.9999 0.0 0
M  V30 28 C 0.0 2.5 0.0 0
M  V30 29 C -2.598 -2.9999 0.0 0
M  V30 30 C -3.4641 -3.4999 0.0 0
M  V30 31 C -1.732 -3.4999 0.0 0
M  V30 32 C -3.4641 -4.4999 0.0 0
M  V30 33 C -1.732 -4.4999 0.0 0
M  V30 34 C -2.598 -4.9999 0.0 0
M  V30 35 C -2.598 -5.9999 0.0 0
M  V30 36 C -3.407 -6.5877 0.0 0
M  V30 37 C -1.789 -6.5877 0.0 0
M  V30 38 C -3.098 -7.5388 0.0 0
M  V30 39 C -2.098 -7.5388 0.0 0
M  V30 END ATOM
M  V30 BEGIN BOND
M  V30 1 1 1 2
M  V30 2 1 1 3
M  V30 3 2 2 4
M  V30 4 1 2 5
M  V30 5 1 3 6 CFG=3
M  V30 6 1 3 7
M  V30 7 2 6 8
M  V30 8 1 6 9
M  V30 9 2 7 10
M  V30 10 1 8 11
M  V30 11 2 9 12
M  V30 12 2 11 13
M  V30 13 1 13 14
M  V30 14 1 14 15
M  V30 15 1 15 16
M  V30 16 1 16 17
M  V30 17 1 17 18
M  V30 18 1 18 19
M  V30 19 2 19 20
M  V30 20 1 19 21
M  V30 21 1 20 22
M  V30 22 1 20 23
M  V30 23 2 21 24
M  V30 24 2 22 25
M  V30 25 1 23 26
M  V30 26 1 25 27
M  V30 27 1 26 28
M  V30 28 1 27 29
M  V30 29 2 29 30
M  V30 30 1 29 31
M  V30 31 1 30 32
M  V30 32 2 31 33
M  V30 33 2 32 34
M  V30 34 1 34 35
M  V30 35 1 35 36
M  V30 36 1 35 37
M  V30 37 1 36 38
M  V30 38 1 37 39
M  V30 39 1 5 7
M  V30 40 1 12 13
M  V30 41 1 24 25
M  V30 42 1 33 34
M  V30 43 1 38 39
M  V30 END BOND
M  V30 BEGIN COLLECTION
M  V30 MDLV30/STERAC1 ATOMS=(1 3)
M  V30 END COLLECTION
M  V30 END CTAB
M  END
>  <Molecule ChEMBL ID>
CHEMBL50680

>  <Smiles>
CCCc1cc(Oc2ccc(C3CCCC3)cc2)ccc1OCCCOc1ccc(C2SC(=O)NC2=O)cc1

>  <IC50_nM>
180

>  <Assay Description>
In vitro binding affinity against human PPAR gamma (peroxisome proliferator-activated gamma receptor)

$$$$
CHEMBL300629
Actelion Java MolfileCreator 2.0

  0  0  0  0  0  0              0 V3000
M  V30 BEGIN CTAB
M  V30 COUNTS 34 37 0 0 0
M  V30 BEGIN ATOM
M  V30 1 S 7.8987 -2.9945 0.0 0
M  V30 2 C 8.8769 -3.2024 0.0 0
M  V30 3 C 7.7942 -2.0 0.0 0 CFG=2
M  V30 4 O 9.2836 -4.1159 0.0 0
M  V30 5 N 9.3769 -2.3364 0.0 0
M  V30 6 C 6.9282 -1.5 0.0 0
M  V30 7 C 8.7077 -1.5932 0.0 0
M  V30 8 C 6.9282 -0.5 0.0 0
M  V30 9 C 6.0621 -2.0 0.0 0
M  V30 10 O 8.9156 -0.6151 0.0 0
M  V30 11 C 6.0621 0.0 0.0 0
M  V30 12 C 5.1961 -1.5 0.0 0
M  V30 13 C 5.1961 -0.5 0.0 0
M  V30 14 O 4.3301 0.0 0.0 0
M  V30 15 C 3.4641 -0.5 0.0 0
M  V30 16 C 2.598 0.0 0.0 0
M  V30 17 C 1.732 -0.5 0.0 0
M  V30 18 O 0.866 0.0 0.0 0
M  V30 19 C 0.0 -0.5 0.0 0
M  V30 20 C -0.866 0.0 0.0 0
M  V30 21 C 0.0 -1.4999 0.0 0
M  V30 22 C -1.732 -0.4999 0.0 0
M  V30 23 C -0.866 1.0 0.0 0
M  V30 24 C -0.866 -1.9999 0.0 0
M  V30 25 C -1.732 -1.4999 0.0 0
M  V30 26 C 0.0 1.5 0.0 0
M  V30 27 O -2.598 -1.9999 0.0 0
M  V30 28 C 0.0 2.5 0.0 0
M  V30 29 C -2.598 -2.9999 0.0 0
M  V30 30 C -3.4641 -3.4999 0.0 0
M  V30 31 C -1.732 -3.4999 0.0 0
M  V30 32 C -3.4641 -4.4999 0.0 0
M  V30 33 C -1.732 -4.4999 0.0 0
M  V30 34 C -2.598 -4.9999 0.0 0
M  V30 END ATOM
M  V30 BEGIN BOND
M  V30 1 1 1 2
M  V30 2 1 1 3
M  V30 3 2 2 4
M  V30 4 1 2 5
M  V30 5 1 3 6 CFG=3
M  V30 6 1 3 7
M  V30 7 2 6 8
M  V30 8 1 6 9
M  V30 9 2 7 10
M  V30 10 1 8 11
M  V30 11 2 9 12
M  V30 12 2 11 13
M  V30 13 1 13 14
M  V30 14 1 14 15
M  V30 15 1 15 16
M  V30 16 1 16 17
M  V30 17 1 17 18
M  V30 18 1 18 19
M  V30 19 2 19 20
M  V30 20 1 19 21
M  V30 21 1 20 22
M  V30 22 1 20 23
M  V30 23 2 21 24
M  V30 24 2 22 25
M  V30 25 1 23 26
M  V30 26 1 25 27
M  V30 27 1 26 28
M  V30 28 1 27 29
M  V30 29 2 29 30
M  V30 30 1 29 31
M  V30 31 1 30 32
M  V30 32 2 31 33
M  V30 33 2 32 34
M  V30 34 1 5 7
M  V30 35 1 12 13
M  V30 36 1 24 25
M  V30 37 1 33 34
M  V30 END BOND
M  V30 BEGIN COLLECTION
M  V30 MDLV30/STERAC1 ATOMS=(1 3)
M  V30 END COLLECTION
M  V30 END CTAB
M  END
>  <Molecule ChEMBL ID>
CHEMBL300629

>  <Smiles>
CCCc1cc(Oc2ccccc2)ccc1OCCCOc1ccc(C2SC(=O)NC2=O)cc1

>  <IC50_nM>
180

>  <Assay Description>
In vitro binding affinity against human peroxisome proliferator activated receptor gamma

$$$$
CHEMBL1783059
Actelion Java MolfileCreator 2.0

  0  0  0  0  0  0              0 V3000
M  V30 BEGIN CTAB
M  V30 COUNTS 34 37 0 0 0
M  V30 BEGIN ATOM
M  V30 1 O 9.2836 2.1159 0.0 0
M  V30 2 C 8.8769 1.2024 0.0 0
M  V30 3 O 7.8987 0.9945 0.0 0
M  V30 4 N 9.3769 0.3364 0.0 0
M  V30 5 C 7.7942 0.0 0.0 0 CFG=2
M  V30 6 C 8.7077 -0.4067 0.0 0
M  V30 7 C 6.9282 -0.5 0.0 0
M  V30 8 O 8.9156 -1.3848 0.0 0
M  V30 9 C 6.0621 0.0 0.0 0
M  V30 10 C 6.9282 -1.5 0.0 0
M  V30 11 C 5.1961 -0.5 0.0 0
M  V30 12 C 6.0621 -2.0 0.0 0
M  V30 13 O 4.3301 0.0 0.0 0
M  V30 14 C 5.1961 -1.5 0.0 0
M  V30 15 C 3.4641 -0.5 0.0 0
M  V30 16 C 2.598 0.0 0.0 0
M  V30 17 C 1.732 -0.5 0.0 0
M  V30 18 O 0.866 0.0 0.0 0
M  V30 19 C 0.0 -0.5 0.0 0
M  V30 20 C -0.866 0.0 0.0 0
M  V30 21 C 0.0 -1.4999 0.0 0
M  V30 22 C -1.732 -0.4999 0.0 0
M  V30 23 C -0.866 1.0 0.0 0
M  V30 24 C -0.866 -1.9999 0.0 0
M  V30 25 C -1.732 -1.4999 0.0 0
M  V30 26 C 0.0 1.5 0.0 0
M  V30 27 C -2.598 -1.9999 0.0 0 CFG=1
M  V30 28 C 0.0 2.5 0.0 0
M  V30 29 C -3.4641 -1.4999 0.0 0
M  V30 30 C -2.598 -2.9999 0.0 0
M  V30 31 C -4.3301 -1.9999 0.0 0
M  V30 32 C -3.4641 -3.4999 0.0 0
M  V30 33 C -4.3301 -2.9999 0.0 0 CFG=1
M  V30 34 O -5.1961 -3.4999 0.0 0
M  V30 END ATOM
M  V30 BEGIN BOND
M  V30 1 2 1 2
M  V30 2 1 2 3
M  V30 3 1 2 4
M  V30 4 1 3 5
M  V30 5 1 4 6
M  V30 6 1 5 7 CFG=3
M  V30 7 2 6 8
M  V30 8 2 7 9
M  V30 9 1 7 10
M  V30 10 1 9 11
M  V30 11 2 10 12
M  V30 12 1 11 13
M  V30 13 2 11 14
M  V30 14 1 13 15
M  V30 15 1 15 16
M  V30 16 1 16 17
M  V30 17 1 17 18
M  V30 18 1 18 19
M  V30 19 2 19 20
M  V30 20 1 19 21
M  V30 21 1 20 22
M  V30 22 1 20 23
M  V30 23 2 21 24
M  V30 24 2 22 25
M  V30 25 1 23 26
M  V30 26 1 27 25 CFG=3
M  V30 27 1 26 28
M  V30 28 1 27 29
M  V30 29 1 27 30
M  V30 30 1 29 31
M  V30 31 1 30 32
M  V30 32 1 31 33
M  V30 33 1 33 34 CFG=1
M  V30 34 1 5 6
M  V30 35 1 12 14
M  V30 36 1 24 25
M  V30 37 1 32 33
M  V30 END BOND
M  V30 BEGIN COLLECTION
M  V30 MDLV30/STEABS ATOMS=(3 5 27 33)
M  V30 END COLLECTION
M  V30 END CTAB
M  END
>  <Molecule ChEMBL ID>
CHEMBL1783059

>  <Smiles>
CCCc1cc([C@H]2CC[C@H](O)CC2)ccc1OCCCOc1cccc([C@@H]2OC(=O)NC2=O)c1

>  <IC50_nM>
180

>  <Assay Description>
Displacement of radio-labeled full agonist from PPARgamma receptor

$$$$
CHEMBL300629
Actelion Java MolfileCreator 2.0

  0  0  0  0  0  0              0 V3000
M  V30 BEGIN CTAB
M  V30 COUNTS 34 37 0 0 0
M  V30 BEGIN ATOM
M  V30 1 S 7.8987 -2.9945 0.0 0
M  V30 2 C 8.8769 -3.2024 0.0 0
M  V30 3 C 7.7942 -2.0 0.0 0 CFG=2
M  V30 4 O 9.2836 -4.1159 0.0 0
M  V30 5 N 9.3769 -2.3364 0.0 0
M  V30 6 C 6.9282 -1.5 0.0 0
M  V30 7 C 8.7077 -1.5932 0.0 0
M  V30 8 C 6.9282 -0.5 0.0 0
M  V30 9 C 6.0621 -2.0 0.0 0
M  V30 10 O 8.9156 -0.6151 0.0 0
M  V30 11 C 6.0621 0.0 0.0 0
M  V30 12 C 5.1961 -1.5 0.0 0
M  V30 13 C 5.1961 -0.5 0.0 0
M  V30 14 O 4.3301 0.0 0.0 0
M  V30 15 C 3.4641 -0.5 0.0 0
M  V30 16 C 2.598 0.0 0.0 0
M  V30 17 C 1.732 -0.5 0.0 0
M  V30 18 O 0.866 0.0 0.0 0
M  V30 19 C 0.0 -0.5 0.0 0
M  V30 20 C -0.866 0.0 0.0 0
M  V30 21 C 0.0 -1.4999 0.0 0
M  V30 22 C -1.732 -0.4999 0.0 0
M  V30 23 C -0.866 1.0 0.0 0
M  V30 24 C -0.866 -1.9999 0.0 0
M  V30 25 C -1.732 -1.4999 0.0 0
M  V30 26 C 0.0 1.5 0.0 0
M  V30 27 O -2.598 -1.9999 0.0 0
M  V30 28 C 0.0 2.5 0.0 0
M  V30 29 C -2.598 -2.9999 0.0 0
M  V30 30 C -3.4641 -3.4999 0.0 0
M  V30 31 C -1.732 -3.4999 0.0 0
M  V30 32 C -3.4641 -4.4999 0.0 0
M  V30 33 C -1.732 -4.4999 0.0 0
M  V30 34 C -2.598 -4.9999 0.0 0
M  V30 END ATOM
M  V30 BEGIN BOND
M  V30 1 1 1 2
M  V30 2 1 1 3
M  V30 3 2 2 4
M  V30 4 1 2 5
M  V30 5 1 3 6 CFG=3
M  V30 6 1 3 7
M  V30 7 2 6 8
M  V30 8 1 6 9
M  V30 9 2 7 10
M  V30 10 1 8 11
M  V30 11 2 9 12
M  V30 12 2 11 13
M  V30 13 1 13 14
M  V30 14 1 14 15
M  V30 15 1 15 16
M  V30 16 1 16 17
M  V30 17 1 17 18
M  V30 18 1 18 19
M  V30 19 2 19 20
M  V30 20 1 19 21
M  V30 21 1 20 22
M  V30 22 1 20 23
M  V30 23 2 21 24
M  V30 24 2 22 25
M  V30 25 1 23 26
M  V30 26 1 25 27
M  V30 27 1 26 28
M  V30 28 1 27 29
M  V30 29 2 29 30
M  V30 30 1 29 31
M  V30 31 1 30 32
M  V30 32 2 31 33
M  V30 33 2 32 34
M  V30 34 1 5 7
M  V30 35 1 12 13
M  V30 36 1 24 25
M  V30 37 1 33 34
M  V30 END BOND
M  V30 BEGIN COLLECTION
M  V30 MDLV30/STERAC1 ATOMS=(1 3)
M  V30 END COLLECTION
M  V30 END CTAB
M  END
>  <Molecule ChEMBL ID>
CHEMBL300629

>  <Smiles>
CCCc1cc(Oc2ccccc2)ccc1OCCCOc1ccc(C2SC(=O)NC2=O)cc1

>  <IC50_nM>
180

>  <Assay Description>
In vitro binding affinity against human PPAR gamma (peroxisome proliferator-activated gamma receptor)

$$$$
CHEMBL1783067
Actelion Java MolfileCreator 2.0

  0  0  0  0  0  0              0 V3000
M  V30 BEGIN CTAB
M  V30 COUNTS 34 37 0 0 0
M  V30 BEGIN ATOM
M  V30 1 S 7.8987 -2.9945 0.0 0
M  V30 2 C 8.8769 -3.2024 0.0 0
M  V30 3 C 7.7942 -2.0 0.0 0 CFG=2
M  V30 4 O 9.2836 -4.1159 0.0 0
M  V30 5 N 9.3769 -2.3364 0.0 0
M  V30 6 C 6.9282 -1.5 0.0 0
M  V30 7 C 8.7077 -1.5932 0.0 0
M  V30 8 C 6.9282 -0.5 0.0 0
M  V30 9 C 6.0621 -2.0 0.0 0
M  V30 10 O 8.9156 -0.6151 0.0 0
M  V30 11 C 6.0621 0.0 0.0 0
M  V30 12 C 5.1961 -1.5 0.0 0
M  V30 13 C 5.1961 -0.5 0.0 0
M  V30 14 O 4.3301 0.0 0.0 0
M  V30 15 C 3.4641 -0.5 0.0 0
M  V30 16 C 2.598 0.0 0.0 0
M  V30 17 C 1.732 -0.5 0.0 0
M  V30 18 O 0.866 0.0 0.0 0
M  V30 19 C 0.0 -0.5 0.0 0
M  V30 20 C -0.866 0.0 0.0 0
M  V30 21 C 0.0 -1.4999 0.0 0
M  V30 22 C -1.732 -0.4999 0.0 0
M  V30 23 C -0.866 1.0 0.0 0
M  V30 24 C -0.866 -1.9999 0.0 0
M  V30 25 C -1.732 -1.4999 0.0 0
M  V30 26 C 0.0 1.5 0.0 0
M  V30 27 O -2.598 -1.9999 0.0 0
M  V30 28 C 0.0 2.5 0.0 0
M  V30 29 C -2.598 -2.9999 0.0 0
M  V30 30 C -3.4641 -3.4999 0.0 0
M  V30 31 C -1.732 -3.4999 0.0 0
M  V30 32 C -3.4641 -4.4999 0.0 0
M  V30 33 C -1.732 -4.4999 0.0 0
M  V30 34 C -2.598 -4.9999 0.0 0
M  V30 END ATOM
M  V30 BEGIN BOND
M  V30 1 1 1 2
M  V30 2 1 1 3
M  V30 3 2 2 4
M  V30 4 1 2 5
M  V30 5 1 3 6 CFG=3
M  V30 6 1 3 7
M  V30 7 2 6 8
M  V30 8 1 6 9
M  V30 9 2 7 10
M  V30 10 1 8 11
M  V30 11 2 9 12
M  V30 12 2 11 13
M  V30 13 1 13 14
M  V30 14 1 14 15
M  V30 15 1 15 16
M  V30 16 1 16 17
M  V30 17 1 17 18
M  V30 18 1 18 19
M  V30 19 2 19 20
M  V30 20 1 19 21
M  V30 21 1 20 22
M  V30 22 1 20 23
M  V30 23 2 21 24
M  V30 24 2 22 25
M  V30 25 1 23 26
M  V30 26 1 25 27
M  V30 27 1 26 28
M  V30 28 1 27 29
M  V30 29 2 29 30
M  V30 30 1 29 31
M  V30 31 1 30 32
M  V30 32 2 31 33
M  V30 33 2 32 34
M  V30 34 1 5 7
M  V30 35 1 12 13
M  V30 36 1 24 25
M  V30 37 1 33 34
M  V30 END BOND
M  V30 BEGIN COLLECTION
M  V30 MDLV30/STEABS ATOMS=(1 3)
M  V30 END COLLECTION
M  V30 END CTAB
M  END
>  <Molecule ChEMBL ID>
CHEMBL1783067

>  <Smiles>
CCCc1cc(Oc2ccccc2)ccc1OCCCOc1ccc([C@H]2SC(=O)NC2=O)cc1

>  <IC50_nM>
180

>  <Assay Description>
Displacement of radio-labeled full agonist from PPARgamma receptor

$$$$
CHEMBL220537
Actelion Java MolfileCreator 2.0

  0  0  0  0  0  0              0 V3000
M  V30 BEGIN CTAB
M  V30 COUNTS 33 36 0 0 0
M  V30 BEGIN ATOM
M  V30 1 S 3.8971 0.0 0.0 0
M  V30 2 O 4.6471 1.299 0.0 0
M  V30 3 O 3.1471 1.299 0.0 0
M  V30 4 N 2.598 -0.75 0.0 0
M  V30 5 C 5.1961 -0.75 0.0 0
M  V30 6 C 1.299 0.0 0.0 0
M  V30 7 C 5.1961 -2.25 0.0 0
M  V30 8 C 6.4951 0.0 0.0 0
M  V30 9 O 1.299 1.5 0.0 0
M  V30 10 C 0.0 -0.75 0.0 0
M  V30 11 C 6.4951 -3.0 0.0 0
M  V30 12 C 3.8971 -3.0 0.0 0
M  V30 13 C 7.7942 -0.75 0.0 0
M  V30 14 N -1.3703 -0.1398 0.0 0
M  V30 15 C -0.1567 -2.2417 0.0 0
M  V30 16 C 7.7942 -2.25 0.0 0
M  V30 17 C -2.374 -1.2546 0.0 0
M  V30 18 C -1.6821 1.3273 0.0 0
M  V30 19 C -1.624 -2.5536 0.0 0
M  V30 20 C -3.874 -1.2546 0.0 0
M  V30 21 C -3.1087 1.7908 0.0 0
M  V30 22 C -2.374 -3.8526 0.0 0
M  V30 23 C -4.624 -2.5536 0.0 0
M  V30 24 C -3.4206 3.258 0.0 0
M  V30 25 C -4.2234 0.7871 0.0 0
M  V30 26 C -3.874 -3.8526 0.0 0
M  V30 27 C -4.8472 3.7216 0.0 0
M  V30 28 C -5.65 1.2506 0.0 0
M  V30 29 C -5.9619 2.7179 0.0 0
M  V30 30 C -5.159 5.1888 0.0 0
M  V30 31 F -6.6263 4.8769 0.0 0
M  V30 32 F -5.4709 6.656 0.0 0
M  V30 33 F -3.6918 5.5006 0.0 0
M  V30 END ATOM
M  V30 BEGIN BOND
M  V30 1 2 1 2
M  V30 2 2 1 3
M  V30 3 1 1 4
M  V30 4 1 1 5
M  V30 5 1 4 6
M  V30 6 2 5 7
M  V30 7 1 5 8
M  V30 8 2 6 9
M  V30 9 1 6 10
M  V30 10 1 7 11
M  V30 11 1 7 12
M  V30 12 2 8 13
M  V30 13 1 10 14
M  V30 14 2 10 15
M  V30 15 2 11 16
M  V30 16 1 14 17
M  V30 17 1 14 18
M  V30 18 1 15 19
M  V30 19 1 17 20
M  V30 20 1 18 21
M  V30 21 1 19 22
M  V30 22 2 20 23
M  V30 23 2 21 24
M  V30 24 1 21 25
M  V30 25 2 22 26
M  V30 26 1 24 27
M  V30 27 2 25 28
M  V30 28 2 27 29
M  V30 29 1 27 30
M  V30 30 1 30 31
M  V30 31 1 30 32
M  V30 32 1 30 33
M  V30 33 1 13 16
M  V30 34 2 17 19
M  V30 35 1 23 26
M  V30 36 1 28 29
M  V30 END BOND
M  V30 END CTAB
M  END
>  <Molecule ChEMBL ID>
CHEMBL220537

>  <Smiles>
Cc1ccccc1S(=O)(=O)NC(=O)c1cc2ccccc2n1Cc1cccc(C(F)(F)F)c1

>  <IC50_nM>
180

>  <Assay Description>
Displacement of Fluormone from PPAR gamma

$$$$
CHEMBL116774
Actelion Java MolfileCreator 2.0

  0  0  0  0  0  0              0 V3000
M  V30 BEGIN CTAB
M  V30 COUNTS 34 37 0 0 0
M  V30 BEGIN ATOM
M  V30 1 O 9.2836 2.1159 0.0 0
M  V30 2 C 8.8769 1.2024 0.0 0
M  V30 3 O 7.8987 0.9945 0.0 0
M  V30 4 N 9.3769 0.3364 0.0 0
M  V30 5 C 7.7942 0.0 0.0 0 CFG=1
M  V30 6 C 8.7077 -0.4067 0.0 0
M  V30 7 C 6.9282 -0.5 0.0 0
M  V30 8 O 8.9156 -1.3848 0.0 0
M  V30 9 C 6.0621 0.0 0.0 0
M  V30 10 C 6.9282 -1.5 0.0 0
M  V30 11 C 5.1961 -0.5 0.0 0
M  V30 12 C 6.0621 -2.0 0.0 0
M  V30 13 O 4.3301 0.0 0.0 0
M  V30 14 C 5.1961 -1.5 0.0 0
M  V30 15 C 3.4641 -0.5 0.0 0
M  V30 16 C 2.598 0.0 0.0 0
M  V30 17 C 1.732 -0.5 0.0 0
M  V30 18 O 0.866 0.0 0.0 0
M  V30 19 C 0.0 -0.5 0.0 0
M  V30 20 C -0.866 0.0 0.0 0
M  V30 21 C 0.0 -1.4999 0.0 0
M  V30 22 C -1.732 -0.4999 0.0 0
M  V30 23 C -0.866 1.0 0.0 0
M  V30 24 C -0.866 -1.9999 0.0 0
M  V30 25 C -1.732 -1.4999 0.0 0
M  V30 26 C 0.0 1.5 0.0 0
M  V30 27 C -2.598 -1.9999 0.0 0
M  V30 28 C 0.0 2.5 0.0 0
M  V30 29 C -3.4641 -1.4999 0.0 0
M  V30 30 C -2.598 -2.9999 0.0 0
M  V30 31 C -4.3301 -1.9999 0.0 0
M  V30 32 C -3.4641 -3.4999 0.0 0
M  V30 33 C -4.3301 -2.9999 0.0 0
M  V30 34 O -5.1961 -3.4999 0.0 0
M  V30 END ATOM
M  V30 BEGIN BOND
M  V30 1 2 1 2
M  V30 2 1 2 3
M  V30 3 1 2 4
M  V30 4 1 3 5
M  V30 5 1 4 6
M  V30 6 1 5 7 CFG=1
M  V30 7 2 6 8
M  V30 8 2 7 9
M  V30 9 1 7 10
M  V30 10 1 9 11
M  V30 11 2 10 12
M  V30 12 1 11 13
M  V30 13 2 11 14
M  V30 14 1 13 15
M  V30 15 1 15 16
M  V30 16 1 16 17
M  V30 17 1 17 18
M  V30 18 1 18 19
M  V30 19 2 19 20
M  V30 20 1 19 21
M  V30 21 1 20 22
M  V30 22 1 20 23
M  V30 23 2 21 24
M  V30 24 2 22 25
M  V30 25 1 23 26
M  V30 26 1 25 27
M  V30 27 1 26 28
M  V30 28 1 27 29
M  V30 29 1 27 30
M  V30 30 1 29 31
M  V30 31 1 30 32
M  V30 32 1 31 33
M  V30 33 1 33 34
M  V30 34 1 5 6
M  V30 35 1 12 14
M  V30 36 1 24 25
M  V30 37 1 32 33
M  V30 END BOND
M  V30 BEGIN COLLECTION
M  V30 MDLV30/STERAC1 ATOMS=(1 5)
M  V30 END COLLECTION
M  V30 END CTAB
M  END
>  <Molecule ChEMBL ID>
CHEMBL116774

>  <Smiles>
CCCc1cc(C2CCC(O)CC2)ccc1OCCCOc1cccc(C2OC(=O)NC2=O)c1

>  <IC50_nM>
180

>  <Assay Description>
In vitro binding affinity against human peroxisome proliferator activated receptor gamma

$$$$
CHEMBL394947
Actelion Java MolfileCreator 2.0

  0  0  0  0  0  0              0 V3000
M  V30 BEGIN CTAB
M  V30 COUNTS 42 46 0 0 0
M  V30 BEGIN ATOM
M  V30 1 O 0.0 -6.75 0.0 0
M  V30 2 C 0.0 -5.25 0.0 0
M  V30 3 O -1.299 -4.4999 0.0 0
M  V30 4 C 1.299 -4.5 0.0 0
M  V30 5 N 1.299 -3.0 0.0 0
M  V30 6 C 2.598 -2.25 0.0 0
M  V30 7 C 0.0 -2.25 0.0 0
M  V30 8 C 3.8971 -3.0 0.0 0
M  V30 9 C 0.0 -0.75 0.0 0
M  V30 10 C 3.8971 -4.4999 0.0 0
M  V30 11 C 5.1961 -2.2499 0.0 0
M  V30 12 C -1.299 0.0 0.0 0
M  V30 13 C 1.299 0.0 0.0 0
M  V30 14 C 5.1961 -5.2499 0.0 0
M  V30 15 C 6.4951 -2.9999 0.0 0
M  V30 16 C -1.299 1.4999 0.0 0
M  V30 17 C 1.299 1.5 0.0 0
M  V30 18 O 5.1961 -6.75 0.0 0
M  V30 19 C 6.4951 -4.5 0.0 0
M  V30 20 C 0.0 2.2499 0.0 0
M  V30 21 C 6.4951 -7.4999 0.0 0
M  V30 22 O 0.0 3.75 0.0 0
M  V30 23 C 6.4951 -8.9999 0.0 0
M  V30 24 C -1.299 4.4999 0.0 0
M  V30 25 C 7.7942 -9.7499 0.0 0
M  V30 26 C -1.299 5.9999 0.0 0
M  V30 27 N 7.951 -11.2417 0.0 0
M  V30 28 C 9.1645 -9.1398 0.0 0
M  V30 29 C -2.598 6.7499 0.0 0
M  V30 30 C 0.0 6.75 0.0 0
M  V30 31 C 9.4182 -11.5536 0.0 0
M  V30 32 O 10.1682 -10.2546 0.0 0
M  V30 33 C 9.4764 -7.6726 0.0 0
M  V30 34 C -2.598 8.25 0.0 0
M  V30 35 C 0.0 8.2499 0.0 0
M  V30 36 C 10.0283 -12.9239 0.0 0
M  V30 37 C -1.299 8.9999 0.0 0
M  V30 38 C 9.1466 -14.1374 0.0 0
M  V30 39 C 11.5201 -13.0807 0.0 0
M  V30 40 C 9.7567 -15.5078 0.0 0
M  V30 41 C 12.1302 -14.451 0.0 0
M  V30 42 C 11.2485 -15.6646 0.0 0
M  V30 END ATOM
M  V30 BEGIN BOND
M  V30 1 2 1 2
M  V30 2 1 2 3
M  V30 3 1 2 4
M  V30 4 1 4 5
M  V30 5 1 5 6
M  V30 6 1 5 7
M  V30 7 1 6 8
M  V30 8 1 7 9
M  V30 9 2 8 10
M  V30 10 1 8 11
M  V30 11 2 9 12
M  V30 12 1 9 13
M  V30 13 1 10 14
M  V30 14 2 11 15
M  V30 15 1 12 16
M  V30 16 2 13 17
M  V30 17 1 14 18
M  V30 18 2 14 19
M  V30 19 2 16 20
M  V30 20 1 18 21
M  V30 21 1 20 22
M  V30 22 1 21 23
M  V30 23 1 22 24
M  V30 24 1 23 25
M  V30 25 1 24 26
M  V30 26 1 25 27
M  V30 27 2 25 28
M  V30 28 2 26 29
M  V30 29 1 26 30
M  V30 30 2 27 31
M  V30 31 1 28 32
M  V30 32 1 28 33
M  V30 33 1 29 34
M  V30 34 2 30 35
M  V30 35 1 31 36
M  V30 36 2 34 37
M  V30 37 2 36 38
M  V30 38 1 36 39
M  V30 39 1 38 40
M  V30 40 2 39 41
M  V30 41 2 40 42
M  V30 42 1 15 19
M  V30 43 1 17 20
M  V30 44 1 31 32
M  V30 45 1 35 37
M  V30 46 1 41 42
M  V30 END BOND
M  V30 END CTAB
M  END
>  <Molecule ChEMBL ID>
CHEMBL394947

>  <Smiles>
Cc1oc(-c2ccccc2)nc1CCOc1cccc(CN(CC(=O)O)Cc2ccc(OCc3ccccc3)cc2)c1

>  <IC50_nM>
183

>  <Assay Description>
Displacement of fluorescein labeled ligand from PPARgamma receptor by fluorescence polarization assay

$$$$
CHEMBL5283176
Actelion Java MolfileCreator 2.0

  0  0  0  0  0  0              0 V3000
M  V30 BEGIN CTAB
M  V30 COUNTS 26 28 0 0 0
M  V30 BEGIN ATOM
M  V30 1 Br 6.0621 -1.9999 0.0 0
M  V30 2 C 5.1961 -1.4999 0.0 0
M  V30 3 C 5.1961 -0.5 0.0 0
M  V30 4 C 4.3301 -1.9999 0.0 0
M  V30 5 C 6.0621 0.0 0.0 0
M  V30 6 C 4.3301 0.0 0.0 0
M  V30 7 C 3.4641 -1.5 0.0 0
M  V30 8 O 6.0621 0.9999 0.0 0
M  V30 9 N 6.9282 -0.5 0.0 0
M  V30 10 C 3.4641 -0.5 0.0 0
M  V30 11 C 7.7942 0.0 0.0 0
M  V30 12 C 2.598 0.0 0.0 0
M  V30 13 C 8.6602 -0.5 0.0 0
M  V30 14 C 7.7942 0.9999 0.0 0
M  V30 15 O 2.598 1.0 0.0 0
M  V30 16 N 1.732 -0.5 0.0 0
M  V30 17 C 9.5262 0.0 0.0 0
M  V30 18 C 8.6602 1.4999 0.0 0
M  V30 19 C 0.866 0.0 0.0 0
M  V30 20 C 9.5262 0.9999 0.0 0
M  V30 21 C 0.0 -0.5 0.0 0
M  V30 22 C -0.866 0.0 0.0 0
M  V30 23 C 0.0 -1.4999 0.0 0
M  V30 24 C -1.732 -0.4999 0.0 0
M  V30 25 C -0.866 -1.9999 0.0 0
M  V30 26 C -1.732 -1.4999 0.0 0
M  V30 END ATOM
M  V30 BEGIN BOND
M  V30 1 1 1 2
M  V30 2 2 2 3
M  V30 3 1 2 4
M  V30 4 1 3 5
M  V30 5 1 3 6
M  V30 6 2 4 7
M  V30 7 2 5 8
M  V30 8 1 5 9
M  V30 9 2 6 10
M  V30 10 1 9 11
M  V30 11 1 10 12
M  V30 12 2 11 13
M  V30 13 1 11 14
M  V30 14 2 12 15
M  V30 15 1 12 16
M  V30 16 1 13 17
M  V30 17 2 14 18
M  V30 18 1 16 19
M  V30 19 2 17 20
M  V30 20 1 19 21
M  V30 21 2 21 22
M  V30 22 1 21 23
M  V30 23 1 22 24
M  V30 24 2 23 25
M  V30 25 2 24 26
M  V30 26 1 7 10
M  V30 27 1 18 20
M  V30 28 1 25 26
M  V30 END BOND
M  V30 END CTAB
M  END
>  <Molecule ChEMBL ID>
CHEMBL5283176

>  <Smiles>
O=C(NCc1ccccc1)c1ccc(Br)c(C(=O)Nc2ccccc2)c1

>  <IC50_nM>
183

>  <Assay Description>
Inverse agonist activity at human PPARgamma in human RT112/84 transfected with NLuc-fused FABP4 assessed as reduction in PPARgamma transactivation incubated for 6 to 18 hrs by Nano-Glo luciferase assay

$$$$
CHEMBL477095
Actelion Java MolfileCreator 2.0

  0  0  0  0  0  0              0 V3000
M  V30 BEGIN CTAB
M  V30 COUNTS 31 34 0 0 0
M  V30 BEGIN ATOM
M  V30 1 O 6.9282 -4.5 0.0 0
M  V30 2 C 6.9282 -3.5 0.0 0
M  V30 3 O 7.7942 -3.0 0.0 0
M  V30 4 C 6.0621 -3.0 0.0 0 CFG=1
M  V30 5 N 5.1961 -3.5 0.0 0
M  V30 6 C 6.0621 -1.9999 0.0 0
M  V30 7 C 4.2826 -3.0932 0.0 0
M  V30 8 C 5.0916 -4.4945 0.0 0
M  V30 9 C 5.1961 -1.4999 0.0 0
M  V30 10 C 3.6134 -3.8364 0.0 0
M  V30 11 C 4.1134 -4.7024 0.0 0
M  V30 12 C 5.1961 -0.5 0.0 0
M  V30 13 C 4.3301 -1.9999 0.0 0
M  V30 14 C 4.3301 0.0 0.0 0
M  V30 15 C 3.4641 -1.5 0.0 0
M  V30 16 C 3.4641 -0.5 0.0 0
M  V30 17 C 2.598 0.0 0.0 0
M  V30 18 C 1.732 -0.5 0.0 0
M  V30 19 C 0.866 0.0 0.0 0
M  V30 20 C 0.0 -0.5 0.0 0
M  V30 21 N -0.9135 -0.0932 0.0 0
M  V30 22 C -0.1045 -1.4945 0.0 0
M  V30 23 C -1.5826 -0.8364 0.0 0
M  V30 24 O -1.0826 -1.7024 0.0 0
M  V30 25 C 0.6386 -2.1636 0.0 0
M  V30 26 C -2.5771 -0.7318 0.0 0
M  V30 27 C -2.9839 0.1816 0.0 0
M  V30 28 C -3.1649 -1.5408 0.0 0
M  V30 29 C -3.9784 0.2861 0.0 0
M  V30 30 C -4.1595 -1.4363 0.0 0
M  V30 31 C -4.5662 -0.5228 0.0 0
M  V30 END ATOM
M  V30 BEGIN BOND
M  V30 1 2 1 2
M  V30 2 1 2 3
M  V30 3 1 2 4
M  V30 4 1 4 5 CFG=1
M  V30 5 1 4 6
M  V30 6 1 5 7
M  V30 7 1 5 8
M  V30 8 1 6 9
M  V30 9 2 7 10
M  V30 10 2 8 11
M  V30 11 2 9 12
M  V30 12 1 9 13
M  V30 13 1 12 14
M  V30 14 2 13 15
M  V30 15 2 14 16
M  V30 16 1 16 17
M  V30 17 1 17 18
M  V30 18 1 18 19
M  V30 19 1 19 20
M  V30 20 1 20 21
M  V30 21 2 20 22
M  V30 22 2 21 23
M  V30 23 1 22 24
M  V30 24 1 22 25
M  V30 25 1 23 26
M  V30 26 2 26 27
M  V30 27 1 26 28
M  V30 28 1 27 29
M  V30 29 2 28 30
M  V30 30 2 29 31
M  V30 31 1 10 11
M  V30 32 1 15 16
M  V30 33 1 23 24
M  V30 34 1 30 31
M  V30 END BOND
M  V30 BEGIN COLLECTION
M  V30 MDLV30/STEABS ATOMS=(1 4)
M  V30 END COLLECTION
M  V30 END CTAB
M  END
>  <Molecule ChEMBL ID>
CHEMBL477095

>  <Smiles>
Cc1oc(-c2ccccc2)nc1CCCc1ccc(C[C@@H](C(=O)O)n2cccc2)cc1

>  <IC50_nM>
185

>  <Assay Description>
Displacement of [3H]darglitazone from human PPARgamma by scintillation proximity assay

$$$$
CHEMBL4513559
Actelion Java MolfileCreator 2.0

  0  0  0  0  0  0              0 V3000
M  V30 BEGIN CTAB
M  V30 COUNTS 32 35 0 0 0
M  V30 BEGIN ATOM
M  V30 1 F 10.004 -2.0535 0.0 0
M  V30 2 C 10.212 -3.0316 0.0 0
M  V30 3 F 11.1901 -2.8237 0.0 0
M  V30 4 F 10.4199 -4.0098 0.0 0
M  V30 5 C 9.2338 -3.2395 0.0 0
M  V30 6 C 8.5647 -2.4964 0.0 0
M  V30 7 C 8.9248 -4.1906 0.0 0
M  V30 8 C 7.5865 -2.7043 0.0 0
M  V30 9 C 7.9466 -4.3985 0.0 0
M  V30 10 C 7.2775 -3.6554 0.0 0
M  V30 11 C 6.9174 -1.9612 0.0 0
M  V30 12 N 5.9392 -2.1691 0.0 0
M  V30 13 C 5.1961 -1.4999 0.0 0
M  V30 14 C 5.5325 -3.0826 0.0 0
M  V30 15 C 4.3301 -1.9999 0.0 0
M  V30 16 C 5.1961 -0.4999 0.0 0
M  V30 17 C 4.538 -2.9781 0.0 0
M  V30 18 C 6.0325 -3.9487 0.0 0
M  V30 19 C 3.4641 -1.5 0.0 0
M  V30 20 C 4.3301 0.0 0.0 0
M  V30 21 C 3.8689 -3.7212 0.0 0
M  V30 22 C 3.4641 -0.5 0.0 0
M  V30 23 C 2.598 0.0 0.0 0
M  V30 24 O 2.598 1.0 0.0 0
M  V30 25 N 1.732 -0.5 0.0 0
M  V30 26 C 0.866 0.0 0.0 0
M  V30 27 C 0.0 -0.5 0.0 0
M  V30 28 N -0.866 0.0 0.0 0
M  V30 29 C 0.0 -1.4999 0.0 0
M  V30 30 C -1.732 -0.4999 0.0 0
M  V30 31 C -0.866 -1.9999 0.0 0
M  V30 32 C -1.732 -1.4999 0.0 0
M  V30 END ATOM
M  V30 BEGIN BOND
M  V30 1 1 1 2
M  V30 2 1 2 3
M  V30 3 1 2 4
M  V30 4 1 2 5
M  V30 5 2 5 6
M  V30 6 1 5 7
M  V30 7 1 6 8
M  V30 8 2 7 9
M  V30 9 2 8 10
M  V30 10 1 8 11
M  V30 11 1 11 12
M  V30 12 1 12 13
M  V30 13 1 12 14
M  V30 14 2 13 15
M  V30 15 1 13 16
M  V30 16 2 14 17
M  V30 17 1 14 18
M  V30 18 1 15 19
M  V30 19 2 16 20
M  V30 20 1 17 21
M  V30 21 2 19 22
M  V30 22 1 22 23
M  V30 23 2 23 24
M  V30 24 1 23 25
M  V30 25 1 25 26
M  V30 26 1 26 27
M  V30 27 2 27 28
M  V30 28 1 27 29
M  V30 29 1 28 30
M  V30 30 2 29 31
M  V30 31 2 30 32
M  V30 32 1 9 10
M  V30 33 1 15 17
M  V30 34 1 20 22
M  V30 35 1 31 32
M  V30 END BOND
M  V30 END CTAB
M  END
>  <Molecule ChEMBL ID>
CHEMBL4513559

>  <Smiles>
Cc1c(C)n(Cc2cccc(C(F)(F)F)c2)c2ccc(C(=O)NCc3ccccn3)cc12

>  <IC50_nM>
185

>  <Assay Description>
Displacement of fluormone PPAR green tracer ligand from recombinant GST-tagged PPARgamma ligand binding domain (unknown origin) incubated for 4 hrs by competitive fluorescence polarization binding assay

$$$$
CHEMBL477095
Actelion Java MolfileCreator 2.0

  0  0  0  0  0  0              0 V3000
M  V30 BEGIN CTAB
M  V30 COUNTS 31 34 0 0 0
M  V30 BEGIN ATOM
M  V30 1 O 6.9282 -4.5 0.0 0
M  V30 2 C 6.9282 -3.5 0.0 0
M  V30 3 O 7.7942 -3.0 0.0 0
M  V30 4 C 6.0621 -3.0 0.0 0 CFG=1
M  V30 5 N 5.1961 -3.5 0.0 0
M  V30 6 C 6.0621 -1.9999 0.0 0
M  V30 7 C 4.2826 -3.0932 0.0 0
M  V30 8 C 5.0916 -4.4945 0.0 0
M  V30 9 C 5.1961 -1.4999 0.0 0
M  V30 10 C 3.6134 -3.8364 0.0 0
M  V30 11 C 4.1134 -4.7024 0.0 0
M  V30 12 C 5.1961 -0.5 0.0 0
M  V30 13 C 4.3301 -1.9999 0.0 0
M  V30 14 C 4.3301 0.0 0.0 0
M  V30 15 C 3.4641 -1.5 0.0 0
M  V30 16 C 3.4641 -0.5 0.0 0
M  V30 17 C 2.598 0.0 0.0 0
M  V30 18 C 1.732 -0.5 0.0 0
M  V30 19 C 0.866 0.0 0.0 0
M  V30 20 C 0.0 -0.5 0.0 0
M  V30 21 N -0.9135 -0.0932 0.0 0
M  V30 22 C -0.1045 -1.4945 0.0 0
M  V30 23 C -1.5826 -0.8364 0.0 0
M  V30 24 O -1.0826 -1.7024 0.0 0
M  V30 25 C 0.6386 -2.1636 0.0 0
M  V30 26 C -2.5771 -0.7318 0.0 0
M  V30 27 C -2.9839 0.1816 0.0 0
M  V30 28 C -3.1649 -1.5408 0.0 0
M  V30 29 C -3.9784 0.2861 0.0 0
M  V30 30 C -4.1595 -1.4363 0.0 0
M  V30 31 C -4.5662 -0.5228 0.0 0
M  V30 END ATOM
M  V30 BEGIN BOND
M  V30 1 2 1 2
M  V30 2 1 2 3
M  V30 3 1 2 4
M  V30 4 1 4 5 CFG=1
M  V30 5 1 4 6
M  V30 6 1 5 7
M  V30 7 1 5 8
M  V30 8 1 6 9
M  V30 9 2 7 10
M  V30 10 2 8 11
M  V30 11 2 9 12
M  V30 12 1 9 13
M  V30 13 1 12 14
M  V30 14 2 13 15
M  V30 15 2 14 16
M  V30 16 1 16 17
M  V30 17 1 17 18
M  V30 18 1 18 19
M  V30 19 1 19 20
M  V30 20 1 20 21
M  V30 21 2 20 22
M  V30 22 2 21 23
M  V30 23 1 22 24
M  V30 24 1 22 25
M  V30 25 1 23 26
M  V30 26 2 26 27
M  V30 27 1 26 28
M  V30 28 1 27 29
M  V30 29 2 28 30
M  V30 30 2 29 31
M  V30 31 1 10 11
M  V30 32 1 15 16
M  V30 33 1 23 24
M  V30 34 1 30 31
M  V30 END BOND
M  V30 BEGIN COLLECTION
M  V30 MDLV30/STEABS ATOMS=(1 4)
M  V30 END COLLECTION
M  V30 END CTAB
M  END
>  <Molecule ChEMBL ID>
CHEMBL477095

>  <Smiles>
Cc1oc(-c2ccccc2)nc1CCCc1ccc(C[C@@H](C(=O)O)n2cccc2)cc1

>  <IC50_nM>
185

>  <Assay Description>
Displacement of [3H2]nTZD3 from GST-tagged human PPARgamma expressed in Escherichia coli by SPA

$$$$
CHEMBL3585578
Actelion Java MolfileCreator 2.0

  0  0  0  0  0  0              0 V3000
M  V30 BEGIN CTAB
M  V30 COUNTS 33 36 0 0 0
M  V30 BEGIN ATOM
M  V30 1 S 13.0616 3.8898 0.0 0
M  V30 2 C 14.0653 5.0046 0.0 0
M  V30 3 C 11.6913 4.4999 0.0 0 CFG=2
M  V30 4 O 15.5571 4.8478 0.0 0
M  V30 5 N 13.3153 6.3036 0.0 0
M  V30 6 C 11.8481 5.9917 0.0 0
M  V30 7 C 10.3923 3.7499 0.0 0
M  V30 8 O 10.7334 6.9954 0.0 0
M  V30 9 C 10.3923 2.2499 0.0 0
M  V30 10 C 9.0932 1.5 0.0 0
M  V30 11 C 11.6913 1.4999 0.0 0
M  V30 12 C 9.0932 0.0 0.0 0
M  V30 13 C 11.6913 0.0 0.0 0
M  V30 14 O 7.7942 -0.75 0.0 0
M  V30 15 C 10.3923 -0.75 0.0 0
M  V30 16 C 6.4951 0.0 0.0 0
M  V30 17 C 5.1961 -0.75 0.0 0
M  V30 18 O 3.8971 0.0 0.0 0
M  V30 19 N 2.598 -0.75 0.0 0
M  V30 20 C 1.299 0.0 0.0 0
M  V30 21 C 1.299 1.5 0.0 0
M  V30 22 C 0.0 -0.75 0.0 0
M  V30 23 C 2.598 2.25 0.0 0
M  V30 24 C 0.0 2.2499 0.0 0
M  V30 25 C 2.598 3.75 0.0 0
M  V30 26 C 0.0 3.75 0.0 0
M  V30 27 C 1.299 4.5 0.0 0
M  V30 28 C 1.299 6.0 0.0 0
M  V30 29 C 2.598 6.75 0.0 0
M  V30 30 C 0.0 6.75 0.0 0
M  V30 31 C 2.598 8.25 0.0 0
M  V30 32 C 0.0 8.25 0.0 0
M  V30 33 C 1.299 9.0 0.0 0
M  V30 END ATOM
M  V30 BEGIN BOND
M  V30 1 1 1 2
M  V30 2 1 1 3
M  V30 3 2 2 4
M  V30 4 1 2 5
M  V30 5 1 3 6
M  V30 6 1 3 7 CFG=1
M  V30 7 2 6 8
M  V30 8 1 7 9
M  V30 9 2 9 10
M  V30 10 1 9 11
M  V30 11 1 10 12
M  V30 12 2 11 13
M  V30 13 1 12 14
M  V30 14 2 12 15
M  V30 15 1 14 16
M  V30 16 1 16 17
M  V30 17 1 17 18
M  V30 18 1 18 19
M  V30 19 2 19 20
M  V30 20 1 20 21
M  V30 21 1 20 22
M  V30 22 2 21 23
M  V30 23 1 21 24
M  V30 24 1 23 25
M  V30 25 2 24 26
M  V30 26 2 25 27
M  V30 27 1 27 28
M  V30 28 2 28 29
M  V30 29 1 28 30
M  V30 30 1 29 31
M  V30 31 2 30 32
M  V30 32 2 31 33
M  V30 33 1 5 6
M  V30 34 1 13 15
M  V30 35 1 26 27
M  V30 36 1 32 33
M  V30 END BOND
M  V30 BEGIN COLLECTION
M  V30 MDLV30/STERAC1 ATOMS=(1 3)
M  V30 END COLLECTION
M  V30 END CTAB
M  END
>  <Molecule ChEMBL ID>
CHEMBL3585578

>  <Smiles>
C/C(=N/OCCOc1cccc(CC2SC(=O)NC2=O)c1)c1ccc(-c2ccccc2)cc1

>  <IC50_nM>
190

>  <Assay Description>
Agonist activity at PPARgamma (unknown origin)

$$$$
CHEMBL540732
Actelion Java MolfileCreator 2.0

  0  0  0  0  0  0              0 V3000
M  V30 BEGIN CTAB
M  V30 COUNTS 23 22 0 0 0
M  V30 BEGIN ATOM
M  V30 1 O 19.4855 0.0 0.0 0
M  V30 2 N 18.1865 -0.75 0.0 0 CHG=1
M  V30 3 O 18.1865 -2.25 0.0 0 CHG=-1
M  V30 4 C 16.8874 0.0 0.0 0
M  V30 5 C 15.5884 -0.75 0.0 0
M  V30 6 C 16.8874 1.5 0.0 0
M  V30 7 C 14.2894 0.0 0.0 0
M  V30 8 C 18.1865 2.2499 0.0 0
M  V30 9 C 12.9903 -0.75 0.0 0
M  V30 10 C 18.1865 3.7499 0.0 0
M  V30 11 C 11.6913 0.0 0.0 0
M  V30 12 C 19.4855 4.4999 0.0 0
M  V30 13 C 10.3923 -0.75 0.0 0
M  V30 14 C 19.4855 5.9999 0.0 0
M  V30 15 C 9.0932 0.0 0.0 0
M  V30 16 C 7.7942 -0.75 0.0 0
M  V30 17 C 6.4951 0.0 0.0 0
M  V30 18 C 5.1961 -0.75 0.0 0
M  V30 19 C 3.8971 0.0 0.0 0
M  V30 20 C 2.598 -0.75 0.0 0
M  V30 21 C 1.299 0.0 0.0 0
M  V30 22 O 1.299 1.5 0.0 0
M  V30 23 O 0.0 -0.75 0.0 0
M  V30 END ATOM
M  V30 BEGIN BOND
M  V30 1 2 1 2
M  V30 2 1 2 3
M  V30 3 1 2 4
M  V30 4 2 4 5
M  V30 5 1 4 6
M  V30 6 1 5 7
M  V30 7 1 6 8
M  V30 8 1 7 9
M  V30 9 1 8 10
M  V30 10 1 9 11
M  V30 11 1 10 12
M  V30 12 1 11 13
M  V30 13 1 12 14
M  V30 14 1 13 15
M  V30 15 1 15 16
M  V30 16 1 16 17
M  V30 17 1 17 18
M  V30 18 1 18 19
M  V30 19 1 19 20
M  V30 20 1 20 21
M  V30 21 2 21 22
M  V30 22 1 21 23
M  V30 END BOND
M  V30 END CTAB
M  END
>  <Molecule ChEMBL ID>
CHEMBL540732

>  <Smiles>
CCCCC/C(=C\CCCCCCCCCCC(=O)O)[N+](=O)[O-]

>  <IC50_nM>
190

>  <Assay Description>
Displacement of [3H2]nTZD3 from GST-tagged human recombinant PPARgamma by scintillation proximity assay

$$$$
CHEMBL186179
Actelion Java MolfileCreator 2.0

  0  0  0  0  0  0              0 V3000
M  V30 BEGIN CTAB
M  V30 COUNTS 38 41 0 0 0
M  V30 BEGIN ATOM
M  V30 1 O 3.4641 -1.5 0.0 0
M  V30 2 C 3.4641 -0.5 0.0 0
M  V30 3 O 4.3301 0.0 0.0 0
M  V30 4 N 2.598 0.0 0.0 0
M  V30 5 C 5.1961 -0.5 0.0 0
M  V30 6 C 2.598 1.0 0.0 0
M  V30 7 C 1.732 -0.5 0.0 0
M  V30 8 C 5.1961 -1.5 0.0 0
M  V30 9 C 6.0621 0.0 0.0 0
M  V30 10 C 1.732 1.5 0.0 0
M  V30 11 C 1.732 -1.5 0.0 0
M  V30 12 C 6.0621 -2.0 0.0 0
M  V30 13 C 6.9282 -0.5 0.0 0
M  V30 14 C 1.732 2.5 0.0 0
M  V30 15 C 0.866 1.0 0.0 0
M  V30 16 O 2.598 -2.0 0.0 0
M  V30 17 O 0.866 -2.0 0.0 0
M  V30 18 C 6.9282 -1.5 0.0 0
M  V30 19 C 0.866 3.0 0.0 0
M  V30 20 C 0.0 1.5 0.0 0
M  V30 21 O 7.7942 -2.0 0.0 0
M  V30 22 C 0.0 2.5 0.0 0
M  V30 23 C 8.6602 -1.5 0.0 0
M  V30 24 O -0.866 3.0 0.0 0
M  V30 25 C -1.732 2.5 0.0 0
M  V30 26 C -2.598 3.0 0.0 0
M  V30 27 C -3.4641 2.5 0.0 0
M  V30 28 N -4.3776 2.9067 0.0 0
M  V30 29 C -3.5686 1.5054 0.0 0
M  V30 30 C -5.0467 2.1635 0.0 0
M  V30 31 O -4.5467 1.2975 0.0 0
M  V30 32 C -2.8254 0.8363 0.0 0
M  V30 33 C -6.0412 2.2681 0.0 0
M  V30 34 C -6.448 3.1816 0.0 0
M  V30 35 C -6.629 1.4591 0.0 0
M  V30 36 C -7.4425 3.2861 0.0 0
M  V30 37 C -7.6236 1.5636 0.0 0
M  V30 38 C -8.0303 2.4771 0.0 0
M  V30 END ATOM
M  V30 BEGIN BOND
M  V30 1 2 1 2
M  V30 2 1 2 3
M  V30 3 1 2 4
M  V30 4 1 3 5
M  V30 5 1 4 6
M  V30 6 1 4 7
M  V30 7 2 5 8
M  V30 8 1 5 9
M  V30 9 1 6 10
M  V30 10 1 7 11
M  V30 11 1 8 12
M  V30 12 2 9 13
M  V30 13 2 10 14
M  V30 14 1 10 15
M  V30 15 2 11 16
M  V30 16 1 11 17
M  V30 17 2 12 18
M  V30 18 1 14 19
M  V30 19 2 15 20
M  V30 20 1 18 21
M  V30 21 2 19 22
M  V30 22 1 21 23
M  V30 23 1 22 24
M  V30 24 1 24 25
M  V30 25 1 25 26
M  V30 26 1 26 27
M  V30 27 1 27 28
M  V30 28 2 27 29
M  V30 29 2 28 30
M  V30 30 1 29 31
M  V30 31 1 29 32
M  V30 32 1 30 33
M  V30 33 2 33 34
M  V30 34 1 33 35
M  V30 35 1 34 36
M  V30 36 2 35 37
M  V30 37 2 36 38
M  V30 38 1 13 18
M  V30 39 1 20 22
M  V30 40 1 30 31
M  V30 41 1 37 38
M  V30 END BOND
M  V30 END CTAB
M  END
>  <Molecule ChEMBL ID>
CHEMBL186179

>  <Smiles>
COc1ccc(OC(=O)N(CC(=O)O)Cc2ccc(OCCc3nc(-c4ccccc4)oc3C)cc2)cc1

>  <IC50_nM>
190

>  <Assay Description>
Inhibition of human Peroxisome proliferator activated receptor gamma

$$$$
CHEMBL3695834
Actelion Java MolfileCreator 2.0

  0  0  0  0  0  0              0 V3000
M  V30 BEGIN CTAB
M  V30 COUNTS 41 45 0 0 0
M  V30 BEGIN ATOM
M  V30 1 F 5.5621 0.866 0.0 0
M  V30 2 C 6.0621 0.0 0.0 0
M  V30 3 F 6.9282 0.4999 0.0 0
M  V30 4 F 6.5621 -0.866 0.0 0
M  V30 5 C 5.1961 -0.5 0.0 0
M  V30 6 C 4.3301 0.0 0.0 0
M  V30 7 C 5.1961 -1.4999 0.0 0
M  V30 8 C 3.4641 -0.5 0.0 0
M  V30 9 C 4.3301 -1.9999 0.0 0
M  V30 10 C 3.4641 -1.4999 0.0 0
M  V30 11 C 2.598 0.0 0.0 0
M  V30 12 N 1.732 -0.5 0.0 0
M  V30 13 C 0.866 0.0 0.0 0
M  V30 14 O 0.866 1.0 0.0 0
M  V30 15 C 0.0 -0.5 0.0 0
M  V30 16 C 0.0 -1.4999 0.0 0
M  V30 17 C -0.866 0.0 0.0 0
M  V30 18 C -0.866 -1.9999 0.0 0
M  V30 19 C -1.732 -0.4999 0.0 0
M  V30 20 C -1.732 -1.4999 0.0 0
M  V30 21 C -1.0739 -2.9781 0.0 0
M  V30 22 N -2.4751 -2.1691 0.0 0
M  V30 23 C -2.0684 -3.0826 0.0 0
M  V30 24 C -0.4048 -3.7212 0.0 0
M  V30 25 C -3.4533 -1.9612 0.0 0
M  V30 26 C -2.5684 -3.9487 0.0 0
M  V30 27 C -4.1224 -2.7043 0.0 0
M  V30 28 C -5.1006 -2.4964 0.0 0
M  V30 29 C -3.8134 -3.6554 0.0 0
M  V30 30 C -5.7697 -3.2395 0.0 0
M  V30 31 C -4.4825 -4.3985 0.0 0
M  V30 32 C -5.4607 -4.1906 0.0 0
M  V30 33 C -6.1298 -4.9337 0.0 0
M  V30 34 C -7.108 -4.7258 0.0 0
M  V30 35 C -5.8208 -5.8848 0.0 0
M  V30 36 C -7.417 -3.7748 0.0 0
M  V30 37 C -7.7771 -5.469 0.0 0
M  V30 38 C -6.4899 -6.6279 0.0 0
M  V30 39 O -6.7478 -3.0316 0.0 0
M  V30 40 O -8.3951 -3.5669 0.0 0
M  V30 41 C -7.4681 -6.42 0.0 0
M  V30 END ATOM
M  V30 BEGIN BOND
M  V30 1 1 1 2
M  V30 2 1 2 3
M  V30 3 1 2 4
M  V30 4 1 2 5
M  V30 5 2 5 6
M  V30 6 1 5 7
M  V30 7 1 6 8
M  V30 8 2 7 9
M  V30 9 2 8 10
M  V30 10 1 8 11
M  V30 11 1 11 12
M  V30 12 1 12 13
M  V30 13 2 13 14
M  V30 14 1 13 15
M  V30 15 2 15 16
M  V30 16 1 15 17
M  V30 17 1 16 18
M  V30 18 2 17 19
M  V30 19 2 18 20
M  V30 20 1 18 21
M  V30 21 1 20 22
M  V30 22 2 21 23
M  V30 23 1 21 24
M  V30 24 1 22 25
M  V30 25 1 23 26
M  V30 26 1 25 27
M  V30 27 2 27 28
M  V30 28 1 27 29
M  V30 29 1 28 30
M  V30 30 2 29 31
M  V30 31 2 30 32
M  V30 32 1 32 33
M  V30 33 2 33 34
M  V30 34 1 33 35
M  V30 35 1 34 36
M  V30 36 1 34 37
M  V30 37 2 35 38
M  V30 38 2 36 39
M  V30 39 1 36 40
M  V30 40 2 37 41
M  V30 41 1 9 10
M  V30 42 1 19 20
M  V30 43 1 22 23
M  V30 44 1 31 32
M  V30 45 1 38 41
M  V30 END BOND
M  V30 END CTAB
M  END
>  <Molecule ChEMBL ID>
CHEMBL3695834

>  <Smiles>
Cc1c(C)n(Cc2ccc(-c3ccccc3C(=O)O)cc2)c2ccc(C(=O)NCc3cccc(C(F)(F)F)c3)cc12

>  <IC50_nM>
191

>  <Assay Description>
Lanthascreen Competitive Binding Assay: The assay was performed according to manufacturer protocol. A mixture of nM GST-PPARG-LBD, 5 nM Tb-GST-antibody, 5 nM Fluormone Pan-PPAR Green, and serial dilutions of the experimental compound, beginning at 10 ׬M downwards, was added to wells of black 384-well low-volume plates (Greiner) to a total volume of 18 ׬L. All dilutions were made in TR-FRET assay buffer C. DMSO at 2% final concentration was used as a no-ligand control. Experiment was performed in triplicate, and incubated for 2 hours in the dark prior to assay read in Perkin Elmer ViewLux ultra HTS microplate reader. FRET signal was measured by excitation at 340 nm and emission at 520 nm for fluorescein and 490 nm for terbium. Fold change over DMSO was calculated using GraphPad Prism Software (La Jolla, Calif.) by calculating 520 nm/490 nm ratio. Graphs were plotted as fold change of FRET signal for compound treatment over DMSO-only control.

$$$$
CHEMBL23296
Actelion Java MolfileCreator 2.0

  0  0  0  0  0  0              0 V3000
M  V30 BEGIN CTAB
M  V30 COUNTS 32 34 0 0 0
M  V30 BEGIN ATOM
M  V30 1 Cl 6.0621 1.0 0.0 0
M  V30 2 C 6.0621 0.0 0.0 0
M  V30 3 C 5.1961 -0.5 0.0 0
M  V30 4 C 6.9282 -0.4999 0.0 0
M  V30 5 S 4.3301 0.0 0.0 0
M  V30 6 C 5.1961 -1.4999 0.0 0
M  V30 7 C 6.9282 -1.4999 0.0 0
M  V30 8 C 3.4641 -0.5 0.0 0
M  V30 9 C 6.0621 -1.9999 0.0 0
M  V30 10 C 7.7942 -1.9999 0.0 0
M  V30 11 C 2.598 0.0 0.0 0
M  V30 12 C 7.7942 -2.9999 0.0 0
M  V30 13 C 1.732 -0.5 0.0 0
M  V30 14 O 6.9282 -3.4999 0.0 0
M  V30 15 O 8.6602 -3.4999 0.0 0
M  V30 16 O 0.866 0.0 0.0 0
M  V30 17 C 0.0 -0.5 0.0 0
M  V30 18 C -0.866 0.0 0.0 0
M  V30 19 C 0.0 -1.5 0.0 0
M  V30 20 C -1.732 -0.4999 0.0 0
M  V30 21 C -0.866 1.0 0.0 0
M  V30 22 C -0.866 -1.9999 0.0 0
M  V30 23 O -2.6831 -0.1909 0.0 0
M  V30 24 C -1.732 -1.4999 0.0 0
M  V30 25 C 0.0 1.5 0.0 0
M  V30 26 N -3.2708 -0.9999 0.0 0
M  V30 27 C -2.6831 -1.809 0.0 0
M  V30 28 C 0.0 2.5 0.0 0
M  V30 29 C -2.9921 -2.76 0.0 0
M  V30 30 F -2.041 -3.069 0.0 0
M  V30 31 F -3.3011 -3.7111 0.0 0
M  V30 32 F -3.9431 -2.451 0.0 0
M  V30 END ATOM
M  V30 BEGIN BOND
M  V30 1 1 1 2
M  V30 2 2 2 3
M  V30 3 1 2 4
M  V30 4 1 3 5
M  V30 5 1 3 6
M  V30 6 2 4 7
M  V30 7 1 5 8
M  V30 8 2 6 9
M  V30 9 1 7 10
M  V30 10 1 8 11
M  V30 11 1 10 12
M  V30 12 1 11 13
M  V30 13 2 12 14
M  V30 14 1 12 15
M  V30 15 1 13 16
M  V30 16 1 16 17
M  V30 17 2 17 18
M  V30 18 1 17 19
M  V30 19 1 18 20
M  V30 20 1 18 21
M  V30 21 2 19 22
M  V30 22 1 20 23
M  V30 23 2 20 24
M  V30 24 1 21 25
M  V30 25 1 23 26
M  V30 26 1 24 27
M  V30 27 1 25 28
M  V30 28 1 27 29
M  V30 29 1 29 30
M  V30 30 1 29 31
M  V30 31 1 29 32
M  V30 32 1 7 9
M  V30 33 1 22 24
M  V30 34 2 26 27
M  V30 END BOND
M  V30 END CTAB
M  END
>  <Molecule ChEMBL ID>
CHEMBL23296

>  <Smiles>
CCCc1c(OCCCSc2ccc(CC(=O)O)cc2Cl)ccc2c(C(F)(F)F)noc12

>  <IC50_nM>
194.98

>  <Assay Description>
Agonist activity at PPARgamma

$$$$
CHEMBL1783036
Actelion Java MolfileCreator 2.0

  0  0  0  0  0  0              0 V3000
M  V30 BEGIN CTAB
M  V30 COUNTS 35 38 0 0 0
M  V30 BEGIN ATOM
M  V30 1 S 7.7372 3.0877 0.0 0
M  V30 2 C 7.4282 4.0388 0.0 0
M  V30 3 C 6.9282 2.5 0.0 0 CFG=2
M  V30 4 O 8.0159 4.8478 0.0 0
M  V30 5 N 6.4282 4.0388 0.0 0
M  V30 6 C 6.9282 1.4999 0.0 0
M  V30 7 C 6.1191 3.0877 0.0 0
M  V30 8 C 6.0621 0.9999 0.0 0
M  V30 9 C 7.7942 0.9999 0.0 0
M  V30 10 O 5.1681 2.7787 0.0 0
M  V30 11 C 6.0621 0.0 0.0 0
M  V30 12 C 7.7942 0.0 0.0 0
M  V30 13 O 5.1961 -0.5 0.0 0
M  V30 14 C 6.9282 -0.5 0.0 0
M  V30 15 C 4.3301 0.0 0.0 0
M  V30 16 C 3.4641 -0.5 0.0 0
M  V30 17 C 2.598 0.0 0.0 0
M  V30 18 C 1.732 -0.5 0.0 0
M  V30 19 O 0.866 0.0 0.0 0
M  V30 20 C 0.0 -0.5 0.0 0
M  V30 21 C -0.866 0.0 0.0 0
M  V30 22 C 0.0 -1.4999 0.0 0
M  V30 23 C -1.732 -0.4999 0.0 0
M  V30 24 C -0.866 1.0 0.0 0
M  V30 25 C -0.866 -1.9999 0.0 0
M  V30 26 C -1.732 -1.4999 0.0 0
M  V30 27 C 0.0 1.5 0.0 0
M  V30 28 O -2.598 -1.9999 0.0 0
M  V30 29 C 0.0 2.5 0.0 0
M  V30 30 C -2.598 -2.9999 0.0 0
M  V30 31 C -3.4641 -3.4999 0.0 0
M  V30 32 C -1.732 -3.4999 0.0 0
M  V30 33 C -3.4641 -4.4999 0.0 0
M  V30 34 C -1.732 -4.4999 0.0 0
M  V30 35 C -2.598 -4.9999 0.0 0
M  V30 END ATOM
M  V30 BEGIN BOND
M  V30 1 1 1 2
M  V30 2 1 1 3
M  V30 3 2 2 4
M  V30 4 1 2 5
M  V30 5 1 3 6 CFG=3
M  V30 6 1 3 7
M  V30 7 2 6 8
M  V30 8 1 6 9
M  V30 9 2 7 10
M  V30 10 1 8 11
M  V30 11 2 9 12
M  V30 12 1 11 13
M  V30 13 2 11 14
M  V30 14 1 13 15
M  V30 15 1 15 16
M  V30 16 1 16 17
M  V30 17 1 17 18
M  V30 18 1 18 19
M  V30 19 1 19 20
M  V30 20 2 20 21
M  V30 21 1 20 22
M  V30 22 1 21 23
M  V30 23 1 21 24
M  V30 24 2 22 25
M  V30 25 2 23 26
M  V30 26 1 24 27
M  V30 27 1 26 28
M  V30 28 1 27 29
M  V30 29 1 28 30
M  V30 30 2 30 31
M  V30 31 1 30 32
M  V30 32 1 31 33
M  V30 33 2 32 34
M  V30 34 2 33 35
M  V30 35 1 5 7
M  V30 36 1 12 14
M  V30 37 1 25 26
M  V30 38 1 34 35
M  V30 END BOND
M  V30 BEGIN COLLECTION
M  V30 MDLV30/STEABS ATOMS=(1 3)
M  V30 END COLLECTION
M  V30 END CTAB
M  END
>  <Molecule ChEMBL ID>
CHEMBL1783036

>  <Smiles>
CCCc1cc(Oc2ccccc2)ccc1OCCCCOc1cccc([C@H]2SC(=O)NC2=O)c1

>  <IC50_nM>
195

>  <Assay Description>
Displacement of radio-labeled full agonist from PPARgamma receptor

$$$$
CHEMBL23296
Actelion Java MolfileCreator 2.0

  0  0  0  0  0  0              0 V3000
M  V30 BEGIN CTAB
M  V30 COUNTS 32 34 0 0 0
M  V30 BEGIN ATOM
M  V30 1 Cl 6.0621 1.0 0.0 0
M  V30 2 C 6.0621 0.0 0.0 0
M  V30 3 C 5.1961 -0.5 0.0 0
M  V30 4 C 6.9282 -0.4999 0.0 0
M  V30 5 S 4.3301 0.0 0.0 0
M  V30 6 C 5.1961 -1.4999 0.0 0
M  V30 7 C 6.9282 -1.4999 0.0 0
M  V30 8 C 3.4641 -0.5 0.0 0
M  V30 9 C 6.0621 -1.9999 0.0 0
M  V30 10 C 7.7942 -1.9999 0.0 0
M  V30 11 C 2.598 0.0 0.0 0
M  V30 12 C 7.7942 -2.9999 0.0 0
M  V30 13 C 1.732 -0.5 0.0 0
M  V30 14 O 6.9282 -3.4999 0.0 0
M  V30 15 O 8.6602 -3.4999 0.0 0
M  V30 16 O 0.866 0.0 0.0 0
M  V30 17 C 0.0 -0.5 0.0 0
M  V30 18 C -0.866 0.0 0.0 0
M  V30 19 C 0.0 -1.5 0.0 0
M  V30 20 C -1.732 -0.4999 0.0 0
M  V30 21 C -0.866 1.0 0.0 0
M  V30 22 C -0.866 -1.9999 0.0 0
M  V30 23 O -2.6831 -0.1909 0.0 0
M  V30 24 C -1.732 -1.4999 0.0 0
M  V30 25 C 0.0 1.5 0.0 0
M  V30 26 N -3.2708 -0.9999 0.0 0
M  V30 27 C -2.6831 -1.809 0.0 0
M  V30 28 C 0.0 2.5 0.0 0
M  V30 29 C -2.9921 -2.76 0.0 0
M  V30 30 F -2.041 -3.069 0.0 0
M  V30 31 F -3.3011 -3.7111 0.0 0
M  V30 32 F -3.9431 -2.451 0.0 0
M  V30 END ATOM
M  V30 BEGIN BOND
M  V30 1 1 1 2
M  V30 2 2 2 3
M  V30 3 1 2 4
M  V30 4 1 3 5
M  V30 5 1 3 6
M  V30 6 2 4 7
M  V30 7 1 5 8
M  V30 8 2 6 9
M  V30 9 1 7 10
M  V30 10 1 8 11
M  V30 11 1 10 12
M  V30 12 1 11 13
M  V30 13 2 12 14
M  V30 14 1 12 15
M  V30 15 1 13 16
M  V30 16 1 16 17
M  V30 17 2 17 18
M  V30 18 1 17 19
M  V30 19 1 18 20
M  V30 20 1 18 21
M  V30 21 2 19 22
M  V30 22 1 20 23
M  V30 23 2 20 24
M  V30 24 1 21 25
M  V30 25 1 23 26
M  V30 26 1 24 27
M  V30 27 1 25 28
M  V30 28 1 27 29
M  V30 29 1 29 30
M  V30 30 1 29 31
M  V30 31 1 29 32
M  V30 32 1 7 9
M  V30 33 1 22 24
M  V30 34 2 26 27
M  V30 END BOND
M  V30 END CTAB
M  END
>  <Molecule ChEMBL ID>
CHEMBL23296

>  <Smiles>
CCCc1c(OCCCSc2ccc(CC(=O)O)cc2Cl)ccc2c(C(F)(F)F)noc12

>  <IC50_nM>
195

>  <Assay Description>
Inhibition of PPAR gamma

$$$$
CHEMBL23296
Actelion Java MolfileCreator 2.0

  0  0  0  0  0  0              0 V3000
M  V30 BEGIN CTAB
M  V30 COUNTS 32 34 0 0 0
M  V30 BEGIN ATOM
M  V30 1 Cl 6.0621 1.0 0.0 0
M  V30 2 C 6.0621 0.0 0.0 0
M  V30 3 C 5.1961 -0.5 0.0 0
M  V30 4 C 6.9282 -0.4999 0.0 0
M  V30 5 S 4.3301 0.0 0.0 0
M  V30 6 C 5.1961 -1.4999 0.0 0
M  V30 7 C 6.9282 -1.4999 0.0 0
M  V30 8 C 3.4641 -0.5 0.0 0
M  V30 9 C 6.0621 -1.9999 0.0 0
M  V30 10 C 7.7942 -1.9999 0.0 0
M  V30 11 C 2.598 0.0 0.0 0
M  V30 12 C 7.7942 -2.9999 0.0 0
M  V30 13 C 1.732 -0.5 0.0 0
M  V30 14 O 6.9282 -3.4999 0.0 0
M  V30 15 O 8.6602 -3.4999 0.0 0
M  V30 16 O 0.866 0.0 0.0 0
M  V30 17 C 0.0 -0.5 0.0 0
M  V30 18 C -0.866 0.0 0.0 0
M  V30 19 C 0.0 -1.5 0.0 0
M  V30 20 C -1.732 -0.4999 0.0 0
M  V30 21 C -0.866 1.0 0.0 0
M  V30 22 C -0.866 -1.9999 0.0 0
M  V30 23 O -2.6831 -0.1909 0.0 0
M  V30 24 C -1.732 -1.4999 0.0 0
M  V30 25 C 0.0 1.5 0.0 0
M  V30 26 N -3.2708 -0.9999 0.0 0
M  V30 27 C -2.6831 -1.809 0.0 0
M  V30 28 C 0.0 2.5 0.0 0
M  V30 29 C -2.9921 -2.76 0.0 0
M  V30 30 F -2.041 -3.069 0.0 0
M  V30 31 F -3.3011 -3.7111 0.0 0
M  V30 32 F -3.9431 -2.451 0.0 0
M  V30 END ATOM
M  V30 BEGIN BOND
M  V30 1 1 1 2
M  V30 2 2 2 3
M  V30 3 1 2 4
M  V30 4 1 3 5
M  V30 5 1 3 6
M  V30 6 2 4 7
M  V30 7 1 5 8
M  V30 8 2 6 9
M  V30 9 1 7 10
M  V30 10 1 8 11
M  V30 11 1 10 12
M  V30 12 1 11 13
M  V30 13 2 12 14
M  V30 14 1 12 15
M  V30 15 1 13 16
M  V30 16 1 16 17
M  V30 17 2 17 18
M  V30 18 1 17 19
M  V30 19 1 18 20
M  V30 20 1 18 21
M  V30 21 2 19 22
M  V30 22 1 20 23
M  V30 23 2 20 24
M  V30 24 1 21 25
M  V30 25 1 23 26
M  V30 26 1 24 27
M  V30 27 1 25 28
M  V30 28 1 27 29
M  V30 29 1 29 30
M  V30 30 1 29 31
M  V30 31 1 29 32
M  V30 32 1 7 9
M  V30 33 1 22 24
M  V30 34 2 26 27
M  V30 END BOND
M  V30 END CTAB
M  END
>  <Molecule ChEMBL ID>
CHEMBL23296

>  <Smiles>
CCCc1c(OCCCSc2ccc(CC(=O)O)cc2Cl)ccc2c(C(F)(F)F)noc12

>  <IC50_nM>
195

>  <Assay Description>
Agonist activity at PPARgamma

$$$$
CHEMBL330191
Actelion Java MolfileCreator 2.0

  0  0  0  0  0  0              0 V3000
M  V30 BEGIN CTAB
M  V30 COUNTS 35 38 0 0 0
M  V30 BEGIN ATOM
M  V30 1 S 7.7372 3.0877 0.0 0
M  V30 2 C 7.4282 4.0388 0.0 0
M  V30 3 C 6.9282 2.5 0.0 0 CFG=2
M  V30 4 O 8.0159 4.8478 0.0 0
M  V30 5 N 6.4282 4.0388 0.0 0
M  V30 6 C 6.9282 1.4999 0.0 0
M  V30 7 C 6.1191 3.0877 0.0 0
M  V30 8 C 6.0621 0.9999 0.0 0
M  V30 9 C 7.7942 0.9999 0.0 0
M  V30 10 O 5.1681 2.7787 0.0 0
M  V30 11 C 6.0621 0.0 0.0 0
M  V30 12 C 7.7942 0.0 0.0 0
M  V30 13 O 5.1961 -0.5 0.0 0
M  V30 14 C 6.9282 -0.5 0.0 0
M  V30 15 C 4.3301 0.0 0.0 0
M  V30 16 C 3.4641 -0.5 0.0 0
M  V30 17 C 2.598 0.0 0.0 0
M  V30 18 C 1.732 -0.5 0.0 0
M  V30 19 O 0.866 0.0 0.0 0
M  V30 20 C 0.0 -0.5 0.0 0
M  V30 21 C -0.866 0.0 0.0 0
M  V30 22 C 0.0 -1.4999 0.0 0
M  V30 23 C -1.732 -0.4999 0.0 0
M  V30 24 C -0.866 1.0 0.0 0
M  V30 25 C -0.866 -1.9999 0.0 0
M  V30 26 C -1.732 -1.4999 0.0 0
M  V30 27 C 0.0 1.5 0.0 0
M  V30 28 O -2.598 -1.9999 0.0 0
M  V30 29 C 0.0 2.5 0.0 0
M  V30 30 C -2.598 -2.9999 0.0 0
M  V30 31 C -3.4641 -3.4999 0.0 0
M  V30 32 C -1.732 -3.4999 0.0 0
M  V30 33 C -3.4641 -4.4999 0.0 0
M  V30 34 C -1.732 -4.4999 0.0 0
M  V30 35 C -2.598 -4.9999 0.0 0
M  V30 END ATOM
M  V30 BEGIN BOND
M  V30 1 1 1 2
M  V30 2 1 1 3
M  V30 3 2 2 4
M  V30 4 1 2 5
M  V30 5 1 3 6 CFG=3
M  V30 6 1 3 7
M  V30 7 2 6 8
M  V30 8 1 6 9
M  V30 9 2 7 10
M  V30 10 1 8 11
M  V30 11 2 9 12
M  V30 12 1 11 13
M  V30 13 2 11 14
M  V30 14 1 13 15
M  V30 15 1 15 16
M  V30 16 1 16 17
M  V30 17 1 17 18
M  V30 18 1 18 19
M  V30 19 1 19 20
M  V30 20 2 20 21
M  V30 21 1 20 22
M  V30 22 1 21 23
M  V30 23 1 21 24
M  V30 24 2 22 25
M  V30 25 2 23 26
M  V30 26 1 24 27
M  V30 27 1 26 28
M  V30 28 1 27 29
M  V30 29 1 28 30
M  V30 30 2 30 31
M  V30 31 1 30 32
M  V30 32 1 31 33
M  V30 33 2 32 34
M  V30 34 2 33 35
M  V30 35 1 5 7
M  V30 36 1 12 14
M  V30 37 1 25 26
M  V30 38 1 34 35
M  V30 END BOND
M  V30 BEGIN COLLECTION
M  V30 MDLV30/STERAC1 ATOMS=(1 3)
M  V30 END COLLECTION
M  V30 END CTAB
M  END
>  <Molecule ChEMBL ID>
CHEMBL330191

>  <Smiles>
CCCc1cc(Oc2ccccc2)ccc1OCCCCOc1cccc(C2SC(=O)NC2=O)c1

>  <IC50_nM>
195

>  <Assay Description>
In vitro binding affinity against human peroxisome proliferator activated receptor gamma

$$$$
CHEMBL5201306
Actelion Java MolfileCreator 2.0

  0  0  0  0  0  0              0 V3000
M  V30 BEGIN CTAB
M  V30 COUNTS 29 32 0 0 0
M  V30 BEGIN ATOM
M  V30 1 Cl 1.732 1.4999 0.0 0
M  V30 2 C 2.598 1.0 0.0 0
M  V30 3 C 2.598 0.0 0.0 0
M  V30 4 C 3.4641 1.4999 0.0 0
M  V30 5 C 1.732 -0.5 0.0 0
M  V30 6 C 3.4641 -0.5 0.0 0
M  V30 7 C 4.3301 1.0 0.0 0
M  V30 8 O 1.732 -1.5 0.0 0
M  V30 9 N 0.866 0.0 0.0 0
M  V30 10 C 4.3301 0.0 0.0 0
M  V30 11 C 0.0 -0.5 0.0 0
M  V30 12 N 5.1961 -0.5 0.0 0 CHG=1
M  V30 13 C -0.866 0.0 0.0 0
M  V30 14 C 0.0 -1.5 0.0 0
M  V30 15 O 5.1961 -1.5 0.0 0
M  V30 16 O 6.0621 0.0 0.0 0 CHG=-1
M  V30 17 C -1.732 -0.4999 0.0 0
M  V30 18 C -0.866 -1.9999 0.0 0
M  V30 19 N -2.6831 -0.1909 0.0 0
M  V30 20 C -1.732 -1.4999 0.0 0
M  V30 21 C -3.2708 -0.9999 0.0 0
M  V30 22 O -2.6831 -1.809 0.0 0
M  V30 23 C -4.2708 -0.9999 0.0 0
M  V30 24 C -4.7708 -0.1339 0.0 0
M  V30 25 C -4.7708 -1.866 0.0 0
M  V30 26 C -5.7708 -0.1339 0.0 0
M  V30 27 C -4.2708 0.732 0.0 0
M  V30 28 C -5.7708 -1.866 0.0 0
M  V30 29 C -6.2708 -0.9999 0.0 0
M  V30 END ATOM
M  V30 BEGIN BOND
M  V30 1 1 1 2
M  V30 2 2 2 3
M  V30 3 1 2 4
M  V30 4 1 3 5
M  V30 5 1 3 6
M  V30 6 2 4 7
M  V30 7 2 5 8
M  V30 8 1 5 9
M  V30 9 2 6 10
M  V30 10 1 9 11
M  V30 11 1 10 12
M  V30 12 2 11 13
M  V30 13 1 11 14
M  V30 14 2 12 15
M  V30 15 1 12 16
M  V30 16 1 13 17
M  V30 17 2 14 18
M  V30 18 1 17 19
M  V30 19 2 17 20
M  V30 20 2 19 21
M  V30 21 1 20 22
M  V30 22 1 21 23
M  V30 23 2 23 24
M  V30 24 1 23 25
M  V30 25 1 24 26
M  V30 26 1 24 27
M  V30 27 2 25 28
M  V30 28 2 26 29
M  V30 29 1 7 10
M  V30 30 1 18 20
M  V30 31 1 21 22
M  V30 32 1 28 29
M  V30 END BOND
M  V30 END CTAB
M  END
>  <Molecule ChEMBL ID>
CHEMBL5201306

>  <Smiles>
Cc1ccccc1-c1nc2cc(NC(=O)c3cc([N+](=O)[O-])ccc3Cl)ccc2o1

>  <IC50_nM>
195

>  <Assay Description>
Inverse agonist activity at PPARgamma in human RT112/84-FABP4 cells assessed as reduction in PPARgamma transactivation measured by Nanoluciferase reporter gene assay

$$$$
CHEMBL380404
Actelion Java MolfileCreator 2.0

  0  0  0  0  0  0              0 V3000
M  V30 BEGIN CTAB
M  V30 COUNTS 31 34 0 0 0
M  V30 BEGIN ATOM
M  V30 1 F 11.5276 3.4744 0.0 0
M  V30 2 C 11.6321 2.4799 0.0 0
M  V30 3 C 10.8231 1.8921 0.0 0
M  V30 4 C 12.5456 2.0731 0.0 0
M  V30 5 C 9.9095 2.2988 0.0 0
M  V30 6 C 10.9276 0.8975 0.0 0
M  V30 7 C 12.6502 1.0786 0.0 0
M  V30 8 O 9.7016 3.277 0.0 0
M  V30 9 N 9.0435 1.7988 0.0 0
M  V30 10 C 11.8411 0.4908 0.0 0
M  V30 11 C 8.7071 3.3815 0.0 0
M  V30 12 C 8.3003 2.4679 0.0 0
M  V30 13 C 8.2071 4.2475 0.0 0
M  V30 14 C 7.3222 2.26 0.0 0
M  V30 15 N 7.0132 1.309 0.0 0
M  V30 16 C 6.0621 0.9999 0.0 0
M  V30 17 C 7.601 0.5 0.0 0
M  V30 18 C 6.0621 0.0 0.0 0
M  V30 19 C 5.1961 1.4999 0.0 0
M  V30 20 C 7.0132 -0.309 0.0 0
M  V30 21 C 5.1961 -0.5 0.0 0
M  V30 22 C 4.3301 0.9999 0.0 0
M  V30 23 C 4.3301 0.0 0.0 0
M  V30 24 C 3.4641 -0.5 0.0 0
M  V30 25 C 2.598 0.0 0.0 0 CFG=2
M  V30 26 O 1.732 -0.5 0.0 0
M  V30 27 C 2.598 1.0 0.0 0
M  V30 28 C 0.866 0.0 0.0 0
M  V30 29 O 3.4641 1.4999 0.0 0
M  V30 30 O 1.732 1.5 0.0 0
M  V30 31 C 0.0 -0.5 0.0 0
M  V30 END ATOM
M  V30 BEGIN BOND
M  V30 1 1 1 2
M  V30 2 2 2 3
M  V30 3 1 2 4
M  V30 4 1 3 5
M  V30 5 1 3 6
M  V30 6 2 4 7
M  V30 7 1 5 8
M  V30 8 2 5 9
M  V30 9 2 6 10
M  V30 10 1 8 11
M  V30 11 1 9 12
M  V30 12 1 11 13
M  V30 13 1 12 14
M  V30 14 1 14 15
M  V30 15 1 15 16
M  V30 16 1 15 17
M  V30 17 2 16 18
M  V30 18 1 16 19
M  V30 19 2 17 20
M  V30 20 1 18 21
M  V30 21 2 19 22
M  V30 22 2 21 23
M  V30 23 1 23 24
M  V30 24 1 24 25
M  V30 25 1 25 26 CFG=3
M  V30 26 1 25 27
M  V30 27 1 26 28
M  V30 28 2 27 29
M  V30 29 1 27 30
M  V30 30 1 28 31
M  V30 31 1 7 10
M  V30 32 2 11 12
M  V30 33 1 18 20
M  V30 34 1 22 23
M  V30 END BOND
M  V30 BEGIN COLLECTION
M  V30 MDLV30/STERAC1 ATOMS=(1 25)
M  V30 END COLLECTION
M  V30 END CTAB
M  END
>  <Molecule ChEMBL ID>
CHEMBL380404

>  <Smiles>
CCOC(Cc1ccc2c(ccn2Cc2nc(-c3ccccc3F)oc2C)c1)C(=O)O

>  <IC50_nM>
196

>  <Assay Description>
Binding affinity to PPARgamma by radio ligand binding assay

$$$$
CHEMBL121
Actelion Java MolfileCreator 2.0

  0  0  0  0  0  0              0 V3000
M  V30 BEGIN CTAB
M  V30 COUNTS 25 27 0 0 0
M  V30 BEGIN ATOM
M  V30 1 S 7.8987 0.0054 0.0 0
M  V30 2 C 8.8769 -0.2024 0.0 0
M  V30 3 C 7.7942 0.9999 0.0 0 CFG=2
M  V30 4 O 9.2836 -1.1159 0.0 0
M  V30 5 N 9.3769 0.6635 0.0 0
M  V30 6 C 8.7077 1.4067 0.0 0
M  V30 7 C 6.9282 1.4999 0.0 0
M  V30 8 O 8.9156 2.3848 0.0 0
M  V30 9 C 6.0621 0.9999 0.0 0
M  V30 10 C 5.1961 1.4999 0.0 0
M  V30 11 C 6.0621 0.0 0.0 0
M  V30 12 C 4.3301 0.9999 0.0 0
M  V30 13 C 5.1961 -0.5 0.0 0
M  V30 14 C 4.3301 0.0 0.0 0
M  V30 15 O 3.4641 -0.5 0.0 0
M  V30 16 C 2.598 0.0 0.0 0
M  V30 17 C 1.732 -0.5 0.0 0
M  V30 18 N 0.866 0.0 0.0 0
M  V30 19 C 0.866 1.0 0.0 0
M  V30 20 C 0.0 -0.5 0.0 0
M  V30 21 N 1.732 1.4999 0.0 0
M  V30 22 C 0.0 1.4999 0.0 0
M  V30 23 C 1.732 2.5 0.0 0
M  V30 24 C 0.0 2.5 0.0 0
M  V30 25 C 0.866 3.0 0.0 0
M  V30 END ATOM
M  V30 BEGIN BOND
M  V30 1 1 1 2
M  V30 2 1 1 3
M  V30 3 2 2 4
M  V30 4 1 2 5
M  V30 5 1 3 6
M  V30 6 1 3 7 CFG=1
M  V30 7 2 6 8
M  V30 8 1 7 9
M  V30 9 2 9 10
M  V30 10 1 9 11
M  V30 11 1 10 12
M  V30 12 2 11 13
M  V30 13 2 12 14
M  V30 14 1 14 15
M  V30 15 1 15 16
M  V30 16 1 16 17
M  V30 17 1 17 18
M  V30 18 1 18 19
M  V30 19 1 18 20
M  V30 20 2 19 21
M  V30 21 1 19 22
M  V30 22 1 21 23
M  V30 23 2 22 24
M  V30 24 2 23 25
M  V30 25 1 5 6
M  V30 26 1 13 14
M  V30 27 1 24 25
M  V30 END BOND
M  V30 BEGIN COLLECTION
M  V30 MDLV30/STERAC1 ATOMS=(1 3)
M  V30 END COLLECTION
M  V30 END CTAB
M  END
>  <Molecule ChEMBL ID>
CHEMBL121

>  <Smiles>
CN(CCOc1ccc(CC2SC(=O)NC2=O)cc1)c1ccccn1

>  <IC50_nM>
199

>  <Assay Description>
Displacement of fluormone PPAR-green from N-terminal His-tagged human PPARgamma-LBD after 2 hrs by fluorescence polarization assay

$$$$
CHEMBL121
Actelion Java MolfileCreator 2.0

  0  0  0  0  0  0              0 V3000
M  V30 BEGIN CTAB
M  V30 COUNTS 25 27 0 0 0
M  V30 BEGIN ATOM
M  V30 1 S 7.8987 0.0054 0.0 0
M  V30 2 C 8.8769 -0.2024 0.0 0
M  V30 3 C 7.7942 0.9999 0.0 0 CFG=2
M  V30 4 O 9.2836 -1.1159 0.0 0
M  V30 5 N 9.3769 0.6635 0.0 0
M  V30 6 C 8.7077 1.4067 0.0 0
M  V30 7 C 6.9282 1.4999 0.0 0
M  V30 8 O 8.9156 2.3848 0.0 0
M  V30 9 C 6.0621 0.9999 0.0 0
M  V30 10 C 5.1961 1.4999 0.0 0
M  V30 11 C 6.0621 0.0 0.0 0
M  V30 12 C 4.3301 0.9999 0.0 0
M  V30 13 C 5.1961 -0.5 0.0 0
M  V30 14 C 4.3301 0.0 0.0 0
M  V30 15 O 3.4641 -0.5 0.0 0
M  V30 16 C 2.598 0.0 0.0 0
M  V30 17 C 1.732 -0.5 0.0 0
M  V30 18 N 0.866 0.0 0.0 0
M  V30 19 C 0.866 1.0 0.0 0
M  V30 20 C 0.0 -0.5 0.0 0
M  V30 21 N 1.732 1.4999 0.0 0
M  V30 22 C 0.0 1.4999 0.0 0
M  V30 23 C 1.732 2.5 0.0 0
M  V30 24 C 0.0 2.5 0.0 0
M  V30 25 C 0.866 3.0 0.0 0
M  V30 END ATOM
M  V30 BEGIN BOND
M  V30 1 1 1 2
M  V30 2 1 1 3
M  V30 3 2 2 4
M  V30 4 1 2 5
M  V30 5 1 3 6
M  V30 6 1 3 7 CFG=1
M  V30 7 2 6 8
M  V30 8 1 7 9
M  V30 9 2 9 10
M  V30 10 1 9 11
M  V30 11 1 10 12
M  V30 12 2 11 13
M  V30 13 2 12 14
M  V30 14 1 14 15
M  V30 15 1 15 16
M  V30 16 1 16 17
M  V30 17 1 17 18
M  V30 18 1 18 19
M  V30 19 1 18 20
M  V30 20 2 19 21
M  V30 21 1 19 22
M  V30 22 1 21 23
M  V30 23 2 22 24
M  V30 24 2 23 25
M  V30 25 1 5 6
M  V30 26 1 13 14
M  V30 27 1 24 25
M  V30 END BOND
M  V30 BEGIN COLLECTION
M  V30 MDLV30/STERAC1 ATOMS=(1 3)
M  V30 END COLLECTION
M  V30 END CTAB
M  END
>  <Molecule ChEMBL ID>
CHEMBL121

>  <Smiles>
CN(CCOc1ccc(CC2SC(=O)NC2=O)cc1)c1ccccn1

>  <IC50_nM>
200

>  <Assay Description>
In vitro binding affinity for human PPAR gamma receptor using scintillation proximity assay (SPA)

$$$$
CHEMBL191276
Actelion Java MolfileCreator 2.0

  0  0  0  0  0  0              0 V3000
M  V30 BEGIN CTAB
M  V30 COUNTS 31 32 0 0 0
M  V30 BEGIN ATOM
M  V30 1 O 3.9411 -3.0338 0.0 0
M  V30 2 C 2.6274 -2.2754 0.0 0
M  V30 3 O 1.6098 -2.7969 0.0 0
M  V30 4 C 2.6274 -0.7584 0.0 0 CFG=1
M  V30 5 O 1.3137 0.0 0.0 0
M  V30 6 C 3.9411 0.0 0.0 0
M  V30 7 C 0.0 -0.7584 0.0 0
M  V30 8 C 3.9411 1.5169 0.0 0
M  V30 9 C 5.2548 -0.7584 0.0 0
M  V30 10 C -1.3137 0.0 0.0 0
M  V30 11 C 0.0 -2.2754 0.0 0
M  V30 12 C 5.2548 2.2754 0.0 0
M  V30 13 C 6.5685 0.0 0.0 0
M  V30 14 C -2.6274 -0.7584 0.0 0
M  V30 15 C -1.3137 1.5169 0.0 0
M  V30 16 C -1.3137 -3.0338 0.0 0
M  V30 17 C 1.1656 -3.1523 0.0 0
M  V30 18 C 6.5685 1.5169 0.0 0
M  V30 19 C -2.6274 -2.2754 0.0 0
M  V30 20 C 0.0 2.2754 0.0 0
M  V30 21 C 1.3137 -4.5508 0.0 0
M  V30 22 O 7.8823 2.2754 0.0 0
M  V30 23 C -3.9411 -3.0338 0.0 0
M  V30 24 C 0.0 3.7923 0.0 0
M  V30 25 C 0.0 -5.3093 0.0 0
M  V30 26 C 7.8823 3.7923 0.0 0
M  V30 27 O -3.9411 -4.5508 0.0 0
M  V30 28 C -5.2548 -2.2754 0.0 0
M  V30 29 C 6.5685 4.5508 0.0 0
M  V30 30 C 9.196 4.5508 0.0 0
M  V30 31 C -6.5685 -3.0338 0.0 0
M  V30 END ATOM
M  V30 BEGIN BOND
M  V30 1 2 1 2
M  V30 2 1 2 3
M  V30 3 1 2 4
M  V30 4 1 4 5 CFG=1
M  V30 5 1 4 6
M  V30 6 1 5 7
M  V30 7 2 6 8
M  V30 8 1 6 9
M  V30 9 2 7 10
M  V30 10 1 7 11
M  V30 11 1 8 12
M  V30 12 2 9 13
M  V30 13 1 10 14
M  V30 14 1 10 15
M  V30 15 2 11 16
M  V30 16 1 11 17
M  V30 17 2 12 18
M  V30 18 2 14 19
M  V30 19 1 15 20
M  V30 20 1 17 21
M  V30 21 1 18 22
M  V30 22 1 19 23
M  V30 23 1 20 24
M  V30 24 1 21 25
M  V30 25 1 22 26
M  V30 26 2 23 27
M  V30 27 1 23 28
M  V30 28 1 26 29
M  V30 29 1 26 30
M  V30 30 1 28 31
M  V30 31 1 13 18
M  V30 32 1 16 19
M  V30 END BOND
M  V30 BEGIN COLLECTION
M  V30 MDLV30/STEABS ATOMS=(1 4)
M  V30 END COLLECTION
M  V30 END CTAB
M  END
>  <Molecule ChEMBL ID>
CHEMBL191276

>  <Smiles>
CCCc1cc(C(=O)CC)cc(CCC)c1O[C@H](C(=O)O)c1ccc(OC(C)C)cc1

>  <IC50_nM>
200

>  <Assay Description>
In vitro binding affinity for human PPAR gamma

$$$$
CHEMBL121
Actelion Java MolfileCreator 2.0

  0  0  0  0  0  0              0 V3000
M  V30 BEGIN CTAB
M  V30 COUNTS 25 27 0 0 0
M  V30 BEGIN ATOM
M  V30 1 S 7.8987 0.0054 0.0 0
M  V30 2 C 8.8769 -0.2024 0.0 0
M  V30 3 C 7.7942 0.9999 0.0 0 CFG=2
M  V30 4 O 9.2836 -1.1159 0.0 0
M  V30 5 N 9.3769 0.6635 0.0 0
M  V30 6 C 8.7077 1.4067 0.0 0
M  V30 7 C 6.9282 1.4999 0.0 0
M  V30 8 O 8.9156 2.3848 0.0 0
M  V30 9 C 6.0621 0.9999 0.0 0
M  V30 10 C 5.1961 1.4999 0.0 0
M  V30 11 C 6.0621 0.0 0.0 0
M  V30 12 C 4.3301 0.9999 0.0 0
M  V30 13 C 5.1961 -0.5 0.0 0
M  V30 14 C 4.3301 0.0 0.0 0
M  V30 15 O 3.4641 -0.5 0.0 0
M  V30 16 C 2.598 0.0 0.0 0
M  V30 17 C 1.732 -0.5 0.0 0
M  V30 18 N 0.866 0.0 0.0 0
M  V30 19 C 0.866 1.0 0.0 0
M  V30 20 C 0.0 -0.5 0.0 0
M  V30 21 N 1.732 1.4999 0.0 0
M  V30 22 C 0.0 1.4999 0.0 0
M  V30 23 C 1.732 2.5 0.0 0
M  V30 24 C 0.0 2.5 0.0 0
M  V30 25 C 0.866 3.0 0.0 0
M  V30 END ATOM
M  V30 BEGIN BOND
M  V30 1 1 1 2
M  V30 2 1 1 3
M  V30 3 2 2 4
M  V30 4 1 2 5
M  V30 5 1 3 6
M  V30 6 1 3 7 CFG=1
M  V30 7 2 6 8
M  V30 8 1 7 9
M  V30 9 2 9 10
M  V30 10 1 9 11
M  V30 11 1 10 12
M  V30 12 2 11 13
M  V30 13 2 12 14
M  V30 14 1 14 15
M  V30 15 1 15 16
M  V30 16 1 16 17
M  V30 17 1 17 18
M  V30 18 1 18 19
M  V30 19 1 18 20
M  V30 20 2 19 21
M  V30 21 1 19 22
M  V30 22 1 21 23
M  V30 23 2 22 24
M  V30 24 2 23 25
M  V30 25 1 5 6
M  V30 26 1 13 14
M  V30 27 1 24 25
M  V30 END BOND
M  V30 BEGIN COLLECTION
M  V30 MDLV30/STERAC1 ATOMS=(1 3)
M  V30 END COLLECTION
M  V30 END CTAB
M  END
>  <Molecule ChEMBL ID>
CHEMBL121

>  <Smiles>
CN(CCOc1ccc(CC2SC(=O)NC2=O)cc1)c1ccccn1

>  <IC50_nM>
200

>  <Assay Description>
Displacement of [3H2]nTZD3 from human recombinant GST-fused PPARgamma expressed in Escherichia coli by scintillation proximity assay

$$$$
CHEMBL121
Actelion Java MolfileCreator 2.0

  0  0  0  0  0  0              0 V3000
M  V30 BEGIN CTAB
M  V30 COUNTS 25 27 0 0 0
M  V30 BEGIN ATOM
M  V30 1 S 7.8987 0.0054 0.0 0
M  V30 2 C 8.8769 -0.2024 0.0 0
M  V30 3 C 7.7942 0.9999 0.0 0 CFG=2
M  V30 4 O 9.2836 -1.1159 0.0 0
M  V30 5 N 9.3769 0.6635 0.0 0
M  V30 6 C 8.7077 1.4067 0.0 0
M  V30 7 C 6.9282 1.4999 0.0 0
M  V30 8 O 8.9156 2.3848 0.0 0
M  V30 9 C 6.0621 0.9999 0.0 0
M  V30 10 C 5.1961 1.4999 0.0 0
M  V30 11 C 6.0621 0.0 0.0 0
M  V30 12 C 4.3301 0.9999 0.0 0
M  V30 13 C 5.1961 -0.5 0.0 0
M  V30 14 C 4.3301 0.0 0.0 0
M  V30 15 O 3.4641 -0.5 0.0 0
M  V30 16 C 2.598 0.0 0.0 0
M  V30 17 C 1.732 -0.5 0.0 0
M  V30 18 N 0.866 0.0 0.0 0
M  V30 19 C 0.866 1.0 0.0 0
M  V30 20 C 0.0 -0.5 0.0 0
M  V30 21 N 1.732 1.4999 0.0 0
M  V30 22 C 0.0 1.4999 0.0 0
M  V30 23 C 1.732 2.5 0.0 0
M  V30 24 C 0.0 2.5 0.0 0
M  V30 25 C 0.866 3.0 0.0 0
M  V30 END ATOM
M  V30 BEGIN BOND
M  V30 1 1 1 2
M  V30 2 1 1 3
M  V30 3 2 2 4
M  V30 4 1 2 5
M  V30 5 1 3 6
M  V30 6 1 3 7 CFG=1
M  V30 7 2 6 8
M  V30 8 1 7 9
M  V30 9 2 9 10
M  V30 10 1 9 11
M  V30 11 1 10 12
M  V30 12 2 11 13
M  V30 13 2 12 14
M  V30 14 1 14 15
M  V30 15 1 15 16
M  V30 16 1 16 17
M  V30 17 1 17 18
M  V30 18 1 18 19
M  V30 19 1 18 20
M  V30 20 2 19 21
M  V30 21 1 19 22
M  V30 22 1 21 23
M  V30 23 2 22 24
M  V30 24 2 23 25
M  V30 25 1 5 6
M  V30 26 1 13 14
M  V30 27 1 24 25
M  V30 END BOND
M  V30 BEGIN COLLECTION
M  V30 MDLV30/STERAC1 ATOMS=(1 3)
M  V30 END COLLECTION
M  V30 END CTAB
M  END
>  <Molecule ChEMBL ID>
CHEMBL121

>  <Smiles>
CN(CCOc1ccc(CC2SC(=O)NC2=O)cc1)c1ccccn1

>  <IC50_nM>
200

>  <Assay Description>
Displacement of [3H]-rosiglitazone from GST-tagged PPARgammaLBD (unknown origin) after 1 hr by scintillation proximity assay

$$$$
CHEMBL121
Actelion Java MolfileCreator 2.0

  0  0  0  0  0  0              0 V3000
M  V30 BEGIN CTAB
M  V30 COUNTS 25 27 0 0 0
M  V30 BEGIN ATOM
M  V30 1 S 7.8987 0.0054 0.0 0
M  V30 2 C 8.8769 -0.2024 0.0 0
M  V30 3 C 7.7942 0.9999 0.0 0 CFG=2
M  V30 4 O 9.2836 -1.1159 0.0 0
M  V30 5 N 9.3769 0.6635 0.0 0
M  V30 6 C 8.7077 1.4067 0.0 0
M  V30 7 C 6.9282 1.4999 0.0 0
M  V30 8 O 8.9156 2.3848 0.0 0
M  V30 9 C 6.0621 0.9999 0.0 0
M  V30 10 C 5.1961 1.4999 0.0 0
M  V30 11 C 6.0621 0.0 0.0 0
M  V30 12 C 4.3301 0.9999 0.0 0
M  V30 13 C 5.1961 -0.5 0.0 0
M  V30 14 C 4.3301 0.0 0.0 0
M  V30 15 O 3.4641 -0.5 0.0 0
M  V30 16 C 2.598 0.0 0.0 0
M  V30 17 C 1.732 -0.5 0.0 0
M  V30 18 N 0.866 0.0 0.0 0
M  V30 19 C 0.866 1.0 0.0 0
M  V30 20 C 0.0 -0.5 0.0 0
M  V30 21 N 1.732 1.4999 0.0 0
M  V30 22 C 0.0 1.4999 0.0 0
M  V30 23 C 1.732 2.5 0.0 0
M  V30 24 C 0.0 2.5 0.0 0
M  V30 25 C 0.866 3.0 0.0 0
M  V30 END ATOM
M  V30 BEGIN BOND
M  V30 1 1 1 2
M  V30 2 1 1 3
M  V30 3 2 2 4
M  V30 4 1 2 5
M  V30 5 1 3 6
M  V30 6 1 3 7 CFG=1
M  V30 7 2 6 8
M  V30 8 1 7 9
M  V30 9 2 9 10
M  V30 10 1 9 11
M  V30 11 1 10 12
M  V30 12 2 11 13
M  V30 13 2 12 14
M  V30 14 1 14 15
M  V30 15 1 15 16
M  V30 16 1 16 17
M  V30 17 1 17 18
M  V30 18 1 18 19
M  V30 19 1 18 20
M  V30 20 2 19 21
M  V30 21 1 19 22
M  V30 22 1 21 23
M  V30 23 2 22 24
M  V30 24 2 23 25
M  V30 25 1 5 6
M  V30 26 1 13 14
M  V30 27 1 24 25
M  V30 END BOND
M  V30 BEGIN COLLECTION
M  V30 MDLV30/STERAC1 ATOMS=(1 3)
M  V30 END COLLECTION
M  V30 END CTAB
M  END
>  <Molecule ChEMBL ID>
CHEMBL121

>  <Smiles>
CN(CCOc1ccc(CC2SC(=O)NC2=O)cc1)c1ccccn1

>  <IC50_nM>
200

>  <Assay Description>
Inhibition of human PPARgamma receptor by scintillation proximity assay

$$$$
CHEMBL197823
Actelion Java MolfileCreator 2.0

  0  0  0  0  0  0              0 V3000
M  V30 BEGIN CTAB
M  V30 COUNTS 34 37 0 0 0
M  V30 BEGIN ATOM
M  V30 1 Cl 5.8147 -1.7024 0.0 0
M  V30 2 C 4.8147 -1.7024 0.0 0
M  V30 3 N 4.3147 -0.8364 0.0 0
M  V30 4 C 4.3147 -2.5684 0.0 0
M  V30 5 C 3.3147 -0.8364 0.0 0
M  V30 6 C 3.3147 -2.5684 0.0 0
M  V30 7 N 2.6455 -0.0932 0.0 0
M  V30 8 C 2.8147 -1.7024 0.0 0
M  V30 9 C 2.8535 0.8848 0.0 0
M  V30 10 C 1.732 -0.5 0.0 0
M  V30 11 C 1.8365 -1.4945 0.0 0
M  V30 12 C 3.8045 1.1939 0.0 0
M  V30 13 C 2.1103 1.554 0.0 0
M  V30 14 C 0.866 0.0 0.0 0
M  V30 15 O 1.0934 -2.1636 0.0 0
M  V30 16 C 4.0124 2.172 0.0 0
M  V30 17 C 2.3182 2.5321 0.0 0
M  V30 18 O 0.866 1.0 0.0 0
M  V30 19 O 0.0 -0.5 0.0 0
M  V30 20 C 1.3013 -3.1418 0.0 0
M  V30 21 C 3.2693 2.8411 0.0 0
M  V30 22 C 0.5582 -3.8109 0.0 0
M  V30 23 C 2.2524 -3.4508 0.0 0
M  V30 24 C 3.4772 3.8193 0.0 0
M  V30 25 C 0.7661 -4.789 0.0 0
M  V30 26 C 2.4603 -4.4289 0.0 0
M  V30 27 C 2.499 4.0272 0.0 0
M  V30 28 C 3.6851 4.7974 0.0 0
M  V30 29 C 4.4553 3.6114 0.0 0
M  V30 30 S 0.0229 -5.4582 0.0 0
M  V30 31 C 1.7171 -5.098 0.0 0
M  V30 32 O -0.6461 -4.715 0.0 0
M  V30 33 O 0.692 -6.2013 0.0 0
M  V30 34 C -0.7201 -6.1273 0.0 0
M  V30 END ATOM
M  V30 BEGIN BOND
M  V30 1 1 1 2
M  V30 2 2 2 3
M  V30 3 1 2 4
M  V30 4 1 3 5
M  V30 5 2 4 6
M  V30 6 1 5 7
M  V30 7 2 5 8
M  V30 8 1 7 9
M  V30 9 1 7 10
M  V30 10 1 8 11
M  V30 11 2 9 12
M  V30 12 1 9 13
M  V30 13 1 10 14
M  V30 14 1 11 15
M  V30 15 1 12 16
M  V30 16 2 13 17
M  V30 17 2 14 18
M  V30 18 1 14 19
M  V30 19 1 15 20
M  V30 20 2 16 21
M  V30 21 2 20 22
M  V30 22 1 20 23
M  V30 23 1 21 24
M  V30 24 1 22 25
M  V30 25 2 23 26
M  V30 26 1 24 27
M  V30 27 1 24 28
M  V30 28 1 24 29
M  V30 29 1 25 30
M  V30 30 2 25 31
M  V30 31 2 30 32
M  V30 32 2 30 33
M  V30 33 1 30 34
M  V30 34 1 6 8
M  V30 35 2 10 11
M  V30 36 1 17 21
M  V30 37 1 26 31
M  V30 END BOND
M  V30 END CTAB
M  END
>  <Molecule ChEMBL ID>
CHEMBL197823

>  <Smiles>
CC(C)(C)c1ccc(-n2c(C(=O)O)c(Oc3cccc(S(C)(=O)=O)c3)c3ccc(Cl)nc32)cc1

>  <IC50_nM>
202

>  <Assay Description>
Inhibitory concentration against human peroxisome proliferator activated receptor gamma in SPA assay

$$$$
CHEMBL237084
Actelion Java MolfileCreator 2.0

  0  0  0  0  0  0              0 V3000
M  V30 BEGIN CTAB
M  V30 COUNTS 39 41 0 0 0
M  V30 BEGIN ATOM
M  V30 1 F 4.9951 1.5 0.0 0
M  V30 2 C 6.4951 1.5 0.0 0
M  V30 3 F 6.4951 3.0 0.0 0
M  V30 4 F 7.9951 1.5 0.0 0
M  V30 5 C 6.4951 0.0 0.0 0
M  V30 6 C 5.1961 -0.75 0.0 0
M  V30 7 C 7.7942 -0.75 0.0 0
M  V30 8 C 3.8971 0.0 0.0 0
M  V30 9 C 5.1961 -2.25 0.0 0
M  V30 10 C 7.7942 -2.25 0.0 0
M  V30 11 O 3.8971 1.5 0.0 0
M  V30 12 N 2.598 -0.75 0.0 0
M  V30 13 C 6.4951 -3.0 0.0 0
M  V30 14 C 9.0932 -3.0 0.0 0
M  V30 15 C 1.299 0.0 0.0 0
M  V30 16 F 9.8432 -1.7009 0.0 0
M  V30 17 F 10.3923 -3.75 0.0 0
M  V30 18 F 8.3432 -4.299 0.0 0
M  V30 19 C 0.0 -0.75 0.0 0
M  V30 20 C -1.299 0.0 0.0 0
M  V30 21 C 0.0 -2.25 0.0 0
M  V30 22 C -2.598 -0.75 0.0 0
M  V30 23 C -1.299 -3.0 0.0 0
M  V30 24 O -3.8971 0.0 0.0 0
M  V30 25 C -2.598 -2.25 0.0 0
M  V30 26 C -5.1961 -0.75 0.0 0
M  V30 27 C -6.4951 0.0 0.0 0
M  V30 28 C -5.1961 -2.25 0.0 0
M  V30 29 C -7.7942 -0.75 0.0 0
M  V30 30 C -6.4951 -3.0 0.0 0
M  V30 31 C -7.7942 -2.25 0.0 0
M  V30 32 C -9.0932 0.0 0.0 0
M  V30 33 O -9.0932 -3.0 0.0 0
M  V30 34 C -9.0932 -4.5 0.0 0
M  V30 35 C -10.3923 -5.25 0.0 0
M  V30 36 C -8.3433 -5.799 0.0 0
M  V30 37 C -7.5933 -4.4999 0.0 0
M  V30 38 O -11.6913 -4.5 0.0 0
M  V30 39 O -10.3923 -6.75 0.0 0
M  V30 END ATOM
M  V30 BEGIN BOND
M  V30 1 1 1 2
M  V30 2 1 2 3
M  V30 3 1 2 4
M  V30 4 1 2 5
M  V30 5 2 5 6
M  V30 6 1 5 7
M  V30 7 1 6 8
M  V30 8 1 6 9
M  V30 9 2 7 10
M  V30 10 2 8 11
M  V30 11 1 8 12
M  V30 12 2 9 13
M  V30 13 1 10 14
M  V30 14 1 12 15
M  V30 15 1 14 16
M  V30 16 1 14 17
M  V30 17 1 14 18
M  V30 18 1 15 19
M  V30 19 2 19 20
M  V30 20 1 19 21
M  V30 21 1 20 22
M  V30 22 2 21 23
M  V30 23 1 22 24
M  V30 24 2 22 25
M  V30 25 1 24 26
M  V30 26 2 26 27
M  V30 27 1 26 28
M  V30 28 1 27 29
M  V30 29 2 28 30
M  V30 30 2 29 31
M  V30 31 1 29 32
M  V30 32 1 31 33
M  V30 33 1 33 34
M  V30 34 1 34 35
M  V30 35 1 34 36
M  V30 36 1 34 37
M  V30 37 2 35 38
M  V30 38 1 35 39
M  V30 39 1 10 13
M  V30 40 1 23 25
M  V30 41 1 30 31
M  V30 END BOND
M  V30 END CTAB
M  END
>  <Molecule ChEMBL ID>
CHEMBL237084

>  <Smiles>
Cc1cc(Oc2cccc(CNC(=O)c3ccc(C(F)(F)F)cc3C(F)(F)F)c2)ccc1OC(C)(C)C(=O)O

>  <IC50_nM>
202.77

>  <Assay Description>
Agonist activity at PPARgamma

$$$$
CHEMBL237084
Actelion Java MolfileCreator 2.0

  0  0  0  0  0  0              0 V3000
M  V30 BEGIN CTAB
M  V30 COUNTS 39 41 0 0 0
M  V30 BEGIN ATOM
M  V30 1 F 4.9951 1.5 0.0 0
M  V30 2 C 6.4951 1.5 0.0 0
M  V30 3 F 6.4951 3.0 0.0 0
M  V30 4 F 7.9951 1.5 0.0 0
M  V30 5 C 6.4951 0.0 0.0 0
M  V30 6 C 5.1961 -0.75 0.0 0
M  V30 7 C 7.7942 -0.75 0.0 0
M  V30 8 C 3.8971 0.0 0.0 0
M  V30 9 C 5.1961 -2.25 0.0 0
M  V30 10 C 7.7942 -2.25 0.0 0
M  V30 11 O 3.8971 1.5 0.0 0
M  V30 12 N 2.598 -0.75 0.0 0
M  V30 13 C 6.4951 -3.0 0.0 0
M  V30 14 C 9.0932 -3.0 0.0 0
M  V30 15 C 1.299 0.0 0.0 0
M  V30 16 F 9.8432 -1.7009 0.0 0
M  V30 17 F 10.3923 -3.75 0.0 0
M  V30 18 F 8.3432 -4.299 0.0 0
M  V30 19 C 0.0 -0.75 0.0 0
M  V30 20 C -1.299 0.0 0.0 0
M  V30 21 C 0.0 -2.25 0.0 0
M  V30 22 C -2.598 -0.75 0.0 0
M  V30 23 C -1.299 -3.0 0.0 0
M  V30 24 O -3.8971 0.0 0.0 0
M  V30 25 C -2.598 -2.25 0.0 0
M  V30 26 C -5.1961 -0.75 0.0 0
M  V30 27 C -6.4951 0.0 0.0 0
M  V30 28 C -5.1961 -2.25 0.0 0
M  V30 29 C -7.7942 -0.75 0.0 0
M  V30 30 C -6.4951 -3.0 0.0 0
M  V30 31 C -7.7942 -2.25 0.0 0
M  V30 32 C -9.0932 0.0 0.0 0
M  V30 33 O -9.0932 -3.0 0.0 0
M  V30 34 C -9.0932 -4.5 0.0 0
M  V30 35 C -10.3923 -5.25 0.0 0
M  V30 36 C -8.3433 -5.799 0.0 0
M  V30 37 C -7.5933 -4.4999 0.0 0
M  V30 38 O -11.6913 -4.5 0.0 0
M  V30 39 O -10.3923 -6.75 0.0 0
M  V30 END ATOM
M  V30 BEGIN BOND
M  V30 1 1 1 2
M  V30 2 1 2 3
M  V30 3 1 2 4
M  V30 4 1 2 5
M  V30 5 2 5 6
M  V30 6 1 5 7
M  V30 7 1 6 8
M  V30 8 1 6 9
M  V30 9 2 7 10
M  V30 10 2 8 11
M  V30 11 1 8 12
M  V30 12 2 9 13
M  V30 13 1 10 14
M  V30 14 1 12 15
M  V30 15 1 14 16
M  V30 16 1 14 17
M  V30 17 1 14 18
M  V30 18 1 15 19
M  V30 19 2 19 20
M  V30 20 1 19 21
M  V30 21 1 20 22
M  V30 22 2 21 23
M  V30 23 1 22 24
M  V30 24 2 22 25
M  V30 25 1 24 26
M  V30 26 2 26 27
M  V30 27 1 26 28
M  V30 28 1 27 29
M  V30 29 2 28 30
M  V30 30 2 29 31
M  V30 31 1 29 32
M  V30 32 1 31 33
M  V30 33 1 33 34
M  V30 34 1 34 35
M  V30 35 1 34 36
M  V30 36 1 34 37
M  V30 37 2 35 38
M  V30 38 1 35 39
M  V30 39 1 10 13
M  V30 40 1 23 25
M  V30 41 1 30 31
M  V30 END BOND
M  V30 END CTAB
M  END
>  <Molecule ChEMBL ID>
CHEMBL237084

>  <Smiles>
Cc1cc(Oc2cccc(CNC(=O)c3ccc(C(F)(F)F)cc3C(F)(F)F)c2)ccc1OC(C)(C)C(=O)O

>  <IC50_nM>
203

>  <Assay Description>
Displacement of [3H]2-methyl-2-(4-{3-{propyl-(5-pyridin-2-yl-thiophene-2-sulfonyl)-amino}-propyl}-phenoxy)-propionic acid from human PPARgamma

$$$$
CHEMBL237084
Actelion Java MolfileCreator 2.0

  0  0  0  0  0  0              0 V3000
M  V30 BEGIN CTAB
M  V30 COUNTS 39 41 0 0 0
M  V30 BEGIN ATOM
M  V30 1 F 4.9951 1.5 0.0 0
M  V30 2 C 6.4951 1.5 0.0 0
M  V30 3 F 6.4951 3.0 0.0 0
M  V30 4 F 7.9951 1.5 0.0 0
M  V30 5 C 6.4951 0.0 0.0 0
M  V30 6 C 5.1961 -0.75 0.0 0
M  V30 7 C 7.7942 -0.75 0.0 0
M  V30 8 C 3.8971 0.0 0.0 0
M  V30 9 C 5.1961 -2.25 0.0 0
M  V30 10 C 7.7942 -2.25 0.0 0
M  V30 11 O 3.8971 1.5 0.0 0
M  V30 12 N 2.598 -0.75 0.0 0
M  V30 13 C 6.4951 -3.0 0.0 0
M  V30 14 C 9.0932 -3.0 0.0 0
M  V30 15 C 1.299 0.0 0.0 0
M  V30 16 F 9.8432 -1.7009 0.0 0
M  V30 17 F 10.3923 -3.75 0.0 0
M  V30 18 F 8.3432 -4.299 0.0 0
M  V30 19 C 0.0 -0.75 0.0 0
M  V30 20 C -1.299 0.0 0.0 0
M  V30 21 C 0.0 -2.25 0.0 0
M  V30 22 C -2.598 -0.75 0.0 0
M  V30 23 C -1.299 -3.0 0.0 0
M  V30 24 O -3.8971 0.0 0.0 0
M  V30 25 C -2.598 -2.25 0.0 0
M  V30 26 C -5.1961 -0.75 0.0 0
M  V30 27 C -6.4951 0.0 0.0 0
M  V30 28 C -5.1961 -2.25 0.0 0
M  V30 29 C -7.7942 -0.75 0.0 0
M  V30 30 C -6.4951 -3.0 0.0 0
M  V30 31 C -7.7942 -2.25 0.0 0
M  V30 32 C -9.0932 0.0 0.0 0
M  V30 33 O -9.0932 -3.0 0.0 0
M  V30 34 C -9.0932 -4.5 0.0 0
M  V30 35 C -10.3923 -5.25 0.0 0
M  V30 36 C -8.3433 -5.799 0.0 0
M  V30 37 C -7.5933 -4.4999 0.0 0
M  V30 38 O -11.6913 -4.5 0.0 0
M  V30 39 O -10.3923 -6.75 0.0 0
M  V30 END ATOM
M  V30 BEGIN BOND
M  V30 1 1 1 2
M  V30 2 1 2 3
M  V30 3 1 2 4
M  V30 4 1 2 5
M  V30 5 2 5 6
M  V30 6 1 5 7
M  V30 7 1 6 8
M  V30 8 1 6 9
M  V30 9 2 7 10
M  V30 10 2 8 11
M  V30 11 1 8 12
M  V30 12 2 9 13
M  V30 13 1 10 14
M  V30 14 1 12 15
M  V30 15 1 14 16
M  V30 16 1 14 17
M  V30 17 1 14 18
M  V30 18 1 15 19
M  V30 19 2 19 20
M  V30 20 1 19 21
M  V30 21 1 20 22
M  V30 22 2 21 23
M  V30 23 1 22 24
M  V30 24 2 22 25
M  V30 25 1 24 26
M  V30 26 2 26 27
M  V30 27 1 26 28
M  V30 28 1 27 29
M  V30 29 2 28 30
M  V30 30 2 29 31
M  V30 31 1 29 32
M  V30 32 1 31 33
M  V30 33 1 33 34
M  V30 34 1 34 35
M  V30 35 1 34 36
M  V30 36 1 34 37
M  V30 37 2 35 38
M  V30 38 1 35 39
M  V30 39 1 10 13
M  V30 40 1 23 25
M  V30 41 1 30 31
M  V30 END BOND
M  V30 END CTAB
M  END
>  <Molecule ChEMBL ID>
CHEMBL237084

>  <Smiles>
Cc1cc(Oc2cccc(CNC(=O)c3ccc(C(F)(F)F)cc3C(F)(F)F)c2)ccc1OC(C)(C)C(=O)O

>  <IC50_nM>
203

>  <Assay Description>
Agonist activity at PPARgamma

$$$$
CHEMBL3695762
Actelion Java MolfileCreator 2.0

  0  0  0  0  0  0              0 V3000
M  V30 BEGIN CTAB
M  V30 COUNTS 38 42 0 0 0
M  V30 BEGIN ATOM
M  V30 1 O 11.8592 -3.5669 0.0 0
M  V30 2 C 10.8811 -3.7748 0.0 0
M  V30 3 O 10.212 -3.0316 0.0 0
M  V30 4 C 10.5721 -4.7258 0.0 0
M  V30 5 C 9.5939 -4.9337 0.0 0
M  V30 6 C 11.2412 -5.469 0.0 0
M  V30 7 C 8.9248 -4.1906 0.0 0
M  V30 8 C 9.2849 -5.8848 0.0 0
M  V30 9 C 10.9322 -6.42 0.0 0
M  V30 10 C 9.2338 -3.2395 0.0 0
M  V30 11 C 7.9466 -4.3985 0.0 0
M  V30 12 C 9.954 -6.6279 0.0 0
M  V30 13 C 8.5647 -2.4964 0.0 0
M  V30 14 C 7.2775 -3.6554 0.0 0
M  V30 15 C 7.5865 -2.7043 0.0 0
M  V30 16 C 6.9174 -1.9612 0.0 0
M  V30 17 N 5.9392 -2.1691 0.0 0
M  V30 18 C 5.1961 -1.4999 0.0 0
M  V30 19 C 5.5325 -3.0826 0.0 0
M  V30 20 C 4.3301 -1.9999 0.0 0
M  V30 21 C 5.1961 -0.4999 0.0 0
M  V30 22 C 4.538 -2.9781 0.0 0
M  V30 23 C 6.0325 -3.9487 0.0 0
M  V30 24 C 3.4641 -1.5 0.0 0
M  V30 25 C 4.3301 0.0 0.0 0
M  V30 26 C 3.8689 -3.7212 0.0 0
M  V30 27 C 3.4641 -0.5 0.0 0
M  V30 28 C 2.598 0.0 0.0 0
M  V30 29 O 2.598 1.0 0.0 0
M  V30 30 N 1.732 -0.5 0.0 0
M  V30 31 C 0.866 0.0 0.0 0
M  V30 32 C 1.732 -1.5 0.0 0
M  V30 33 C 0.0 -0.5 0.0 0
M  V30 34 C -0.866 0.0 0.0 0
M  V30 35 C 0.0 -1.4999 0.0 0
M  V30 36 C -1.732 -0.4999 0.0 0
M  V30 37 C -0.866 -1.9999 0.0 0
M  V30 38 C -1.732 -1.4999 0.0 0
M  V30 END ATOM
M  V30 BEGIN BOND
M  V30 1 2 1 2
M  V30 2 1 2 3
M  V30 3 1 2 4
M  V30 4 2 4 5
M  V30 5 1 4 6
M  V30 6 1 5 7
M  V30 7 1 5 8
M  V30 8 2 6 9
M  V30 9 2 7 10
M  V30 10 1 7 11
M  V30 11 2 8 12
M  V30 12 1 10 13
M  V30 13 2 11 14
M  V30 14 2 13 15
M  V30 15 1 15 16
M  V30 16 1 16 17
M  V30 17 1 17 18
M  V30 18 1 17 19
M  V30 19 2 18 20
M  V30 20 1 18 21
M  V30 21 2 19 22
M  V30 22 1 19 23
M  V30 23 1 20 24
M  V30 24 2 21 25
M  V30 25 1 22 26
M  V30 26 2 24 27
M  V30 27 1 27 28
M  V30 28 2 28 29
M  V30 29 1 28 30
M  V30 30 1 30 31
M  V30 31 1 30 32
M  V30 32 1 31 33
M  V30 33 2 33 34
M  V30 34 1 33 35
M  V30 35 1 34 36
M  V30 36 2 35 37
M  V30 37 2 36 38
M  V30 38 1 9 12
M  V30 39 1 14 15
M  V30 40 1 20 22
M  V30 41 1 25 27
M  V30 42 1 37 38
M  V30 END BOND
M  V30 END CTAB
M  END
>  <Molecule ChEMBL ID>
CHEMBL3695762

>  <Smiles>
Cc1c(C)n(Cc2ccc(-c3ccccc3C(=O)O)cc2)c2ccc(C(=O)N(C)Cc3ccccc3)cc12

>  <IC50_nM>
206

>  <Assay Description>
Lanthascreen Competitive Binding Assay: The assay was performed according to manufacturer protocol. A mixture of nM GST-PPARG-LBD, 5 nM Tb-GST-antibody, 5 nM Fluormone Pan-PPAR Green, and serial dilutions of the experimental compound, beginning at 10 ׬M downwards, was added to wells of black 384-well low-volume plates (Greiner) to a total volume of 18 ׬L. All dilutions were made in TR-FRET assay buffer C. DMSO at 2% final concentration was used as a no-ligand control. Experiment was performed in triplicate, and incubated for 2 hours in the dark prior to assay read in Perkin Elmer ViewLux ultra HTS microplate reader. FRET signal was measured by excitation at 340 nm and emission at 520 nm for fluorescein and 490 nm for terbium. Fold change over DMSO was calculated using GraphPad Prism Software (La Jolla, Calif.) by calculating 520 nm/490 nm ratio. Graphs were plotted as fold change of FRET signal for compound treatment over DMSO-only control.

$$$$
CHEMBL3695835
Actelion Java MolfileCreator 2.0

  0  0  0  0  0  0              0 V3000
M  V30 BEGIN CTAB
M  V30 COUNTS 41 45 0 0 0
M  V30 BEGIN ATOM
M  V30 1 F 6.5621 -1.1339 0.0 0
M  V30 2 C 6.0621 -1.9999 0.0 0
M  V30 3 F 6.9282 -2.5 0.0 0
M  V30 4 F 5.5621 -2.866 0.0 0
M  V30 5 C 5.1961 -1.4999 0.0 0
M  V30 6 C 5.1961 -0.5 0.0 0
M  V30 7 C 4.3301 -1.9999 0.0 0
M  V30 8 C 4.3301 0.0 0.0 0
M  V30 9 C 3.4641 -1.5 0.0 0
M  V30 10 C 3.4641 -0.5 0.0 0
M  V30 11 C 2.598 0.0 0.0 0
M  V30 12 N 1.732 -0.5 0.0 0
M  V30 13 C 0.866 0.0 0.0 0
M  V30 14 O 0.866 1.0 0.0 0
M  V30 15 C 0.0 -0.5 0.0 0
M  V30 16 C 0.0 -1.4999 0.0 0
M  V30 17 C -0.866 0.0 0.0 0
M  V30 18 C -0.866 -1.9999 0.0 0
M  V30 19 C -1.732 -0.4999 0.0 0
M  V30 20 C -1.732 -1.4999 0.0 0
M  V30 21 C -1.0739 -2.9781 0.0 0
M  V30 22 N -2.4751 -2.1691 0.0 0
M  V30 23 C -2.0684 -3.0826 0.0 0
M  V30 24 C -0.4048 -3.7212 0.0 0
M  V30 25 C -3.4533 -1.9612 0.0 0
M  V30 26 C -2.5684 -3.9487 0.0 0
M  V30 27 C -4.1224 -2.7043 0.0 0
M  V30 28 C -5.1006 -2.4964 0.0 0
M  V30 29 C -3.8134 -3.6554 0.0 0
M  V30 30 C -5.7697 -3.2395 0.0 0
M  V30 31 C -4.4825 -4.3985 0.0 0
M  V30 32 C -5.4607 -4.1906 0.0 0
M  V30 33 C -6.1298 -4.9337 0.0 0
M  V30 34 C -7.108 -4.7258 0.0 0
M  V30 35 C -5.8208 -5.8848 0.0 0
M  V30 36 C -7.417 -3.7748 0.0 0
M  V30 37 C -7.7771 -5.469 0.0 0
M  V30 38 C -6.4899 -6.6279 0.0 0
M  V30 39 O -6.7478 -3.0316 0.0 0
M  V30 40 O -8.3951 -3.5669 0.0 0
M  V30 41 C -7.4681 -6.42 0.0 0
M  V30 END ATOM
M  V30 BEGIN BOND
M  V30 1 1 1 2
M  V30 2 1 2 3
M  V30 3 1 2 4
M  V30 4 1 2 5
M  V30 5 2 5 6
M  V30 6 1 5 7
M  V30 7 1 6 8
M  V30 8 2 7 9
M  V30 9 2 8 10
M  V30 10 1 10 11
M  V30 11 1 11 12
M  V30 12 1 12 13
M  V30 13 2 13 14
M  V30 14 1 13 15
M  V30 15 2 15 16
M  V30 16 1 15 17
M  V30 17 1 16 18
M  V30 18 2 17 19
M  V30 19 2 18 20
M  V30 20 1 18 21
M  V30 21 1 20 22
M  V30 22 2 21 23
M  V30 23 1 21 24
M  V30 24 1 22 25
M  V30 25 1 23 26
M  V30 26 1 25 27
M  V30 27 2 27 28
M  V30 28 1 27 29
M  V30 29 1 28 30
M  V30 30 2 29 31
M  V30 31 2 30 32
M  V30 32 1 32 33
M  V30 33 2 33 34
M  V30 34 1 33 35
M  V30 35 1 34 36
M  V30 36 1 34 37
M  V30 37 2 35 38
M  V30 38 2 36 39
M  V30 39 1 36 40
M  V30 40 2 37 41
M  V30 41 1 9 10
M  V30 42 1 19 20
M  V30 43 1 22 23
M  V30 44 1 31 32
M  V30 45 1 38 41
M  V30 END BOND
M  V30 END CTAB
M  END
>  <Molecule ChEMBL ID>
CHEMBL3695835

>  <Smiles>
Cc1c(C)n(Cc2ccc(-c3ccccc3C(=O)O)cc2)c2ccc(C(=O)NCc3ccc(C(F)(F)F)cc3)cc12

>  <IC50_nM>
208

>  <Assay Description>
Lanthascreen Competitive Binding Assay: The assay was performed according to manufacturer protocol. A mixture of nM GST-PPARG-LBD, 5 nM Tb-GST-antibody, 5 nM Fluormone Pan-PPAR Green, and serial dilutions of the experimental compound, beginning at 10 ׬M downwards, was added to wells of black 384-well low-volume plates (Greiner) to a total volume of 18 ׬L. All dilutions were made in TR-FRET assay buffer C. DMSO at 2% final concentration was used as a no-ligand control. Experiment was performed in triplicate, and incubated for 2 hours in the dark prior to assay read in Perkin Elmer ViewLux ultra HTS microplate reader. FRET signal was measured by excitation at 340 nm and emission at 520 nm for fluorescein and 490 nm for terbium. Fold change over DMSO was calculated using GraphPad Prism Software (La Jolla, Calif.) by calculating 520 nm/490 nm ratio. Graphs were plotted as fold change of FRET signal for compound treatment over DMSO-only control.

$$$$
CHEMBL181219
Actelion Java MolfileCreator 2.0

  0  0  0  0  0  0              0 V3000
M  V30 BEGIN CTAB
M  V30 COUNTS 31 34 0 0 0
M  V30 BEGIN ATOM
M  V30 1 Cl 6.4951 -3.0 0.0 0
M  V30 2 C 5.1961 -2.25 0.0 0
M  V30 3 C 5.1961 -0.75 0.0 0
M  V30 4 C 3.8971 -2.9999 0.0 0
M  V30 5 C 3.8971 0.0 0.0 0
M  V30 6 C 2.598 -2.25 0.0 0
M  V30 7 C 2.598 -0.75 0.0 0
M  V30 8 C 1.299 0.0 0.0 0
M  V30 9 O 1.299 1.5 0.0 0
M  V30 10 N 0.0 -0.75 0.0 0
M  V30 11 C -1.3703 -0.1398 0.0 0
M  V30 12 C -0.1567 -2.2417 0.0 0
M  V30 13 C -2.374 -1.2546 0.0 0
M  V30 14 C -1.8338 1.2866 0.0 0
M  V30 15 C -1.624 -2.5536 0.0 0
M  V30 16 C 0.9579 -3.2454 0.0 0
M  V30 17 C -3.8412 -0.9427 0.0 0
M  V30 18 C -3.301 1.5985 0.0 0
M  V30 19 C -2.2341 -3.9239 0.0 0
M  V30 20 C -4.3047 0.4838 0.0 0
M  V30 21 C -1.3524 -5.1374 0.0 0
M  V30 22 O -5.7719 0.7957 0.0 0
M  V30 23 C -1.9625 -6.5078 0.0 0
M  V30 24 C 0.1393 -4.9807 0.0 0
M  V30 25 C -6.7756 -0.319 0.0 0
M  V30 26 C -1.0808 -7.7213 0.0 0
M  V30 27 C 1.021 -6.1942 0.0 0
M  V30 28 C -1.6909 -9.0916 0.0 0
M  V30 29 C 0.4109 -7.5645 0.0 0
M  V30 30 O -3.1827 -9.2484 0.0 0
M  V30 31 O -0.8092 -10.3051 0.0 0
M  V30 END ATOM
M  V30 BEGIN BOND
M  V30 1 1 1 2
M  V30 2 2 2 3
M  V30 3 1 2 4
M  V30 4 1 3 5
M  V30 5 2 4 6
M  V30 6 2 5 7
M  V30 7 1 7 8
M  V30 8 2 8 9
M  V30 9 1 8 10
M  V30 10 1 10 11
M  V30 11 1 10 12
M  V30 12 2 11 13
M  V30 13 1 11 14
M  V30 14 2 12 15
M  V30 15 1 12 16
M  V30 16 1 13 17
M  V30 17 2 14 18
M  V30 18 1 15 19
M  V30 19 2 17 20
M  V30 20 1 19 21
M  V30 21 1 20 22
M  V30 22 2 21 23
M  V30 23 1 21 24
M  V30 24 1 22 25
M  V30 25 1 23 26
M  V30 26 2 24 27
M  V30 27 1 26 28
M  V30 28 2 26 29
M  V30 29 2 28 30
M  V30 30 1 28 31
M  V30 31 1 6 7
M  V30 32 1 13 15
M  V30 33 1 18 20
M  V30 34 1 27 29
M  V30 END BOND
M  V30 END CTAB
M  END
>  <Molecule ChEMBL ID>
CHEMBL181219

>  <Smiles>
COc1ccc2c(c1)c(Cc1cccc(C(=O)O)c1)c(C)n2C(=O)c1ccc(Cl)cc1

>  <IC50_nM>
208

>  <Assay Description>
In vitro inhibition of human Peroxisome proliferator activated receptor gamma

$$$$
CHEMBL370021
Actelion Java MolfileCreator 2.0

  0  0  0  0  0  0              0 V3000
M  V30 BEGIN CTAB
M  V30 COUNTS 29 30 0 0 0
M  V30 BEGIN ATOM
M  V30 1 O 3.9441 -3.0361 0.0 0
M  V30 2 C 2.6294 -2.2771 0.0 0
M  V30 3 O 1.611 -2.7991 0.0 0
M  V30 4 C 2.6294 -0.759 0.0 0 CFG=1
M  V30 5 O 1.3147 0.0 0.0 0
M  V30 6 C 3.9441 0.0 0.0 0
M  V30 7 C 0.0 -0.759 0.0 0
M  V30 8 C 3.9441 1.518 0.0 0
M  V30 9 C 5.2588 -0.759 0.0 0
M  V30 10 C -1.3147 0.0 0.0 0
M  V30 11 C 0.0 -2.2771 0.0 0
M  V30 12 C 5.2588 2.2771 0.0 0
M  V30 13 C 6.5735 0.0 0.0 0
M  V30 14 C -2.6294 -0.759 0.0 0
M  V30 15 C -1.3147 1.518 0.0 0
M  V30 16 C -1.3147 -3.0361 0.0 0
M  V30 17 C 1.1665 -3.1547 0.0 0
M  V30 18 C 6.5735 1.518 0.0 0
M  V30 19 C -2.6294 -2.2771 0.0 0
M  V30 20 C 0.0 2.2771 0.0 0
M  V30 21 C 1.3147 -4.5542 0.0 0
M  V30 22 C 7.8882 2.2771 0.0 0
M  V30 23 C -3.9441 -3.0361 0.0 0
M  V30 24 C 0.0 3.7952 0.0 0
M  V30 25 C 0.0 -5.3133 0.0 0
M  V30 26 C 9.2029 1.518 0.0 0
M  V30 27 O -3.9441 -4.5542 0.0 0
M  V30 28 C -5.2588 -2.2771 0.0 0
M  V30 29 C -6.5735 -3.0361 0.0 0
M  V30 END ATOM
M  V30 BEGIN BOND
M  V30 1 2 1 2
M  V30 2 1 2 3
M  V30 3 1 2 4
M  V30 4 1 4 5 CFG=1
M  V30 5 1 4 6
M  V30 6 1 5 7
M  V30 7 2 6 8
M  V30 8 1 6 9
M  V30 9 2 7 10
M  V30 10 1 7 11
M  V30 11 1 8 12
M  V30 12 2 9 13
M  V30 13 1 10 14
M  V30 14 1 10 15
M  V30 15 2 11 16
M  V30 16 1 11 17
M  V30 17 2 12 18
M  V30 18 2 14 19
M  V30 19 1 15 20
M  V30 20 1 17 21
M  V30 21 1 18 22
M  V30 22 1 19 23
M  V30 23 1 20 24
M  V30 24 1 21 25
M  V30 25 1 22 26
M  V30 26 2 23 27
M  V30 27 1 23 28
M  V30 28 1 28 29
M  V30 29 1 13 18
M  V30 30 1 16 19
M  V30 END BOND
M  V30 BEGIN COLLECTION
M  V30 MDLV30/STEABS ATOMS=(1 4)
M  V30 END COLLECTION
M  V30 END CTAB
M  END
>  <Molecule ChEMBL ID>
CHEMBL370021

>  <Smiles>
CCCc1cc(C(=O)CC)cc(CCC)c1O[C@H](C(=O)O)c1ccc(CC)cc1

>  <IC50_nM>
210

>  <Assay Description>
In vitro binding affinity for human PPAR gamma

$$$$
CHEMBL3398456
Actelion Java MolfileCreator 2.0

  0  0  0  0  0  0              0 V3000
M  V30 BEGIN CTAB
M  V30 COUNTS 40 44 0 0 0
M  V30 BEGIN ATOM
M  V30 1 O 10.7781 -0.6816 0.0 0
M  V30 2 C 10.3714 0.2318 0.0 0
M  V30 3 O 10.9592 1.0408 0.0 0
M  V30 4 N 9.3769 0.3364 0.0 0
M  V30 5 C 10.5524 1.9544 0.0 0
M  V30 6 C 8.8769 1.2024 0.0 0
M  V30 7 C 8.7077 -0.4067 0.0 0
M  V30 8 C 11.1402 2.7634 0.0 0
M  V30 9 C 9.5579 2.0589 0.0 0
M  V30 10 C 7.8987 0.9945 0.0 0 CFG=1
M  V30 11 C 7.7942 0.0 0.0 0 CFG=2
M  V30 12 C 10.7335 3.677 0.0 0
M  V30 13 C 9.1512 2.9725 0.0 0
M  V30 14 C 7.1556 1.6636 0.0 0
M  V30 15 C 6.9282 -0.5 0.0 0
M  V30 16 C 9.739 3.7815 0.0 0
M  V30 17 O 7.3635 2.6418 0.0 0
M  V30 18 O 6.2045 1.3546 0.0 0
M  V30 19 C 6.0621 0.0 0.0 0
M  V30 20 C 5.1961 -0.5 0.0 0
M  V30 21 C 4.3301 0.0 0.0 0
M  V30 22 C 5.1961 -1.4999 0.0 0
M  V30 23 C 3.4641 -0.5 0.0 0
M  V30 24 C 4.3301 -1.9999 0.0 0
M  V30 25 O 2.598 0.0 0.0 0
M  V30 26 C 3.4641 -1.4999 0.0 0
M  V30 27 C 1.732 -0.5 0.0 0
M  V30 28 C 0.866 0.0 0.0 0
M  V30 29 C 0.0 -0.5 0.0 0
M  V30 30 N -0.9135 -0.0932 0.0 0
M  V30 31 C -0.1045 -1.4945 0.0 0
M  V30 32 C -1.5826 -0.8364 0.0 0
M  V30 33 O -1.0826 -1.7024 0.0 0
M  V30 34 C 0.6386 -2.1636 0.0 0
M  V30 35 C -2.5771 -0.7318 0.0 0
M  V30 36 C -2.9839 0.1816 0.0 0
M  V30 37 C -3.1649 -1.5408 0.0 0
M  V30 38 C -3.9784 0.2861 0.0 0
M  V30 39 C -4.1595 -1.4363 0.0 0
M  V30 40 C -4.5662 -0.5228 0.0 0
M  V30 END ATOM
M  V30 BEGIN BOND
M  V30 1 2 1 2
M  V30 2 1 2 3
M  V30 3 1 2 4
M  V30 4 1 3 5
M  V30 5 1 4 6
M  V30 6 1 4 7
M  V30 7 2 5 8
M  V30 8 1 5 9
M  V30 9 1 6 10
M  V30 10 1 7 11
M  V30 11 1 8 12
M  V30 12 2 9 13
M  V30 13 1 10 14 CFG=1
M  V30 14 1 11 15 CFG=1
M  V30 15 2 12 16
M  V30 16 2 14 17
M  V30 17 1 14 18
M  V30 18 1 15 19
M  V30 19 1 19 20
M  V30 20 2 20 21
M  V30 21 1 20 22
M  V30 22 1 21 23
M  V30 23 2 22 24
M  V30 24 1 23 25
M  V30 25 2 23 26
M  V30 26 1 25 27
M  V30 27 1 27 28
M  V30 28 1 28 29
M  V30 29 1 29 30
M  V30 30 2 29 31
M  V30 31 2 30 32
M  V30 32 1 31 33
M  V30 33 1 31 34
M  V30 34 1 32 35
M  V30 35 2 35 36
M  V30 36 1 35 37
M  V30 37 1 36 38
M  V30 38 2 37 39
M  V30 39 2 38 40
M  V30 40 1 10 11
M  V30 41 1 13 16
M  V30 42 1 24 26
M  V30 43 1 32 33
M  V30 44 1 39 40
M  V30 END BOND
M  V30 BEGIN COLLECTION
M  V30 MDLV30/STEABS ATOMS=(2 10 11)
M  V30 END COLLECTION
M  V30 END CTAB
M  END
>  <Molecule ChEMBL ID>
CHEMBL3398456

>  <Smiles>
Cc1oc(-c2ccccc2)nc1CCOc1cccc(CC[C@@H]2CN(C(=O)Oc3ccccc3)C[C@@H]2C(=O)O)c1

>  <IC50_nM>
210

>  <Assay Description>
Binding affinity to PPARgamma (unknown origin) using fluorescein-tagged dual PPARalpha/gamma activator by homogeneous fluorescence polarization binding assay

$$$$
CHEMBL190938
Actelion Java MolfileCreator 2.0

  0  0  0  0  0  0              0 V3000
M  V30 BEGIN CTAB
M  V30 COUNTS 31 32 0 0 0
M  V30 BEGIN ATOM
M  V30 1 F -1.232 2.366 0.0 0
M  V30 2 C -1.732 1.4999 0.0 0
M  V30 3 F -2.598 1.9999 0.0 0
M  V30 4 F -2.232 0.6339 0.0 0
M  V30 5 C -0.866 0.9999 0.0 0
M  V30 6 C 0.0 1.4999 0.0 0
M  V30 7 C -0.866 0.0 0.0 0
M  V30 8 C 0.866 0.9999 0.0 0
M  V30 9 C 0.0 -0.5 0.0 0
M  V30 10 C 0.866 0.0 0.0 0
M  V30 11 C 1.732 -0.5 0.0 0 CFG=2
M  V30 12 O 2.598 0.0 0.0 0
M  V30 13 C 1.732 -1.5 0.0 0
M  V30 14 C 3.4641 -0.5 0.0 0
M  V30 15 O 2.7259 -2.2069 0.0 0
M  V30 16 O 0.866 -2.0 0.0 0
M  V30 17 C 3.4641 -1.5 0.0 0
M  V30 18 C 4.3301 0.0 0.0 0
M  V30 19 C 4.3301 -2.0 0.0 0
M  V30 20 C 2.7155 -1.8347 0.0 0
M  V30 21 C 5.1961 -0.5 0.0 0
M  V30 22 C 4.3301 0.9999 0.0 0
M  V30 23 C 5.1961 -1.5 0.0 0
M  V30 24 C 2.598 -2.9999 0.0 0
M  V30 25 C 5.1961 1.4999 0.0 0
M  V30 26 C 6.0621 -2.0 0.0 0
M  V30 27 C 1.732 -3.4999 0.0 0
M  V30 28 C 5.1961 2.4999 0.0 0
M  V30 29 O 6.9282 -1.5 0.0 0
M  V30 30 C 6.0621 -3.0 0.0 0
M  V30 31 C 6.9282 -3.5 0.0 0
M  V30 END ATOM
M  V30 BEGIN BOND
M  V30 1 1 1 2
M  V30 2 1 2 3
M  V30 3 1 2 4
M  V30 4 1 2 5
M  V30 5 2 5 6
M  V30 6 1 5 7
M  V30 7 1 6 8
M  V30 8 2 7 9
M  V30 9 2 8 10
M  V30 10 1 10 11
M  V30 11 1 11 12 CFG=3
M  V30 12 1 11 13
M  V30 13 1 12 14
M  V30 14 2 13 15
M  V30 15 1 13 16
M  V30 16 2 14 17
M  V30 17 1 14 18
M  V30 18 1 17 19
M  V30 19 1 17 20
M  V30 20 2 18 21
M  V30 21 1 18 22
M  V30 22 2 19 23
M  V30 23 1 20 24
M  V30 24 1 22 25
M  V30 25 1 23 26
M  V30 26 1 24 27
M  V30 27 1 25 28
M  V30 28 2 26 29
M  V30 29 1 26 30
M  V30 30 1 30 31
M  V30 31 1 9 10
M  V30 32 1 21 23
M  V30 END BOND
M  V30 BEGIN COLLECTION
M  V30 MDLV30/STEABS ATOMS=(1 11)
M  V30 END COLLECTION
M  V30 END CTAB
M  END
>  <Molecule ChEMBL ID>
CHEMBL190938

>  <Smiles>
CCCc1cc(C(=O)CC)cc(CCC)c1O[C@H](C(=O)O)c1ccc(C(F)(F)F)cc1

>  <IC50_nM>
210

>  <Assay Description>
In vitro binding affinity for human PPAR gamma

$$$$
CHEMBL121
Actelion Java MolfileCreator 2.0

  0  0  0  0  0  0              0 V3000
M  V30 BEGIN CTAB
M  V30 COUNTS 25 27 0 0 0
M  V30 BEGIN ATOM
M  V30 1 S 7.8987 0.0054 0.0 0
M  V30 2 C 8.8769 -0.2024 0.0 0
M  V30 3 C 7.7942 0.9999 0.0 0 CFG=2
M  V30 4 O 9.2836 -1.1159 0.0 0
M  V30 5 N 9.3769 0.6635 0.0 0
M  V30 6 C 8.7077 1.4067 0.0 0
M  V30 7 C 6.9282 1.4999 0.0 0
M  V30 8 O 8.9156 2.3848 0.0 0
M  V30 9 C 6.0621 0.9999 0.0 0
M  V30 10 C 5.1961 1.4999 0.0 0
M  V30 11 C 6.0621 0.0 0.0 0
M  V30 12 C 4.3301 0.9999 0.0 0
M  V30 13 C 5.1961 -0.5 0.0 0
M  V30 14 C 4.3301 0.0 0.0 0
M  V30 15 O 3.4641 -0.5 0.0 0
M  V30 16 C 2.598 0.0 0.0 0
M  V30 17 C 1.732 -0.5 0.0 0
M  V30 18 N 0.866 0.0 0.0 0
M  V30 19 C 0.866 1.0 0.0 0
M  V30 20 C 0.0 -0.5 0.0 0
M  V30 21 N 1.732 1.4999 0.0 0
M  V30 22 C 0.0 1.4999 0.0 0
M  V30 23 C 1.732 2.5 0.0 0
M  V30 24 C 0.0 2.5 0.0 0
M  V30 25 C 0.866 3.0 0.0 0
M  V30 END ATOM
M  V30 BEGIN BOND
M  V30 1 1 1 2
M  V30 2 1 1 3
M  V30 3 2 2 4
M  V30 4 1 2 5
M  V30 5 1 3 6
M  V30 6 1 3 7 CFG=1
M  V30 7 2 6 8
M  V30 8 1 7 9
M  V30 9 2 9 10
M  V30 10 1 9 11
M  V30 11 1 10 12
M  V30 12 2 11 13
M  V30 13 2 12 14
M  V30 14 1 14 15
M  V30 15 1 15 16
M  V30 16 1 16 17
M  V30 17 1 17 18
M  V30 18 1 18 19
M  V30 19 1 18 20
M  V30 20 2 19 21
M  V30 21 1 19 22
M  V30 22 1 21 23
M  V30 23 2 22 24
M  V30 24 2 23 25
M  V30 25 1 5 6
M  V30 26 1 13 14
M  V30 27 1 24 25
M  V30 END BOND
M  V30 BEGIN COLLECTION
M  V30 MDLV30/STERAC1 ATOMS=(1 3)
M  V30 END COLLECTION
M  V30 END CTAB
M  END
>  <Molecule ChEMBL ID>
CHEMBL121

>  <Smiles>
CN(CCOc1ccc(CC2SC(=O)NC2=O)cc1)c1ccccn1

>  <IC50_nM>
210

>  <Assay Description>
Inhibitory concentration against human peroxisome proliferator activated receptor gamma in SPA assay

$$$$
CHEMBL3398463
Actelion Java MolfileCreator 2.0

  0  0  0  0  0  0              0 V3000
M  V30 BEGIN CTAB
M  V30 COUNTS 40 44 0 0 0
M  V30 BEGIN ATOM
M  V30 1 O 10.0931 -1.5408 0.0 0
M  V30 2 C 9.5054 -0.7318 0.0 0
M  V30 3 O 9.9121 0.1816 0.0 0
M  V30 4 N 8.5108 -0.8364 0.0 0
M  V30 5 C 9.3243 0.9906 0.0 0
M  V30 6 C 7.8417 -0.0932 0.0 0
M  V30 7 C 8.0108 -1.7024 0.0 0
M  V30 8 C 9.731 1.9042 0.0 0
M  V30 9 C 8.3298 0.8861 0.0 0
M  V30 10 C 6.9282 -0.4999 0.0 0 CFG=1
M  V30 11 C 7.0327 -1.4945 0.0 0 CFG=1
M  V30 12 C 9.1433 2.7132 0.0 0
M  V30 13 C 7.742 1.6951 0.0 0
M  V30 14 C 6.0621 0.0 0.0 0
M  V30 15 C 6.2895 -2.1636 0.0 0
M  V30 16 C 8.1487 2.6087 0.0 0
M  V30 17 C 5.1961 -0.5 0.0 0
M  V30 18 C 6.4974 -3.1418 0.0 0
M  V30 19 C 4.3301 0.0 0.0 0
M  V30 20 C 5.1961 -1.4999 0.0 0
M  V30 21 O 7.4485 -3.4508 0.0 0
M  V30 22 O 5.7543 -3.8109 0.0 0
M  V30 23 C 3.4641 -0.5 0.0 0
M  V30 24 C 4.3301 -1.9999 0.0 0
M  V30 25 O 2.598 0.0 0.0 0
M  V30 26 C 3.4641 -1.4999 0.0 0
M  V30 27 C 1.732 -0.5 0.0 0
M  V30 28 C 0.866 0.0 0.0 0
M  V30 29 C 0.0 -0.5 0.0 0
M  V30 30 N -0.9135 -0.0932 0.0 0
M  V30 31 C -0.1045 -1.4945 0.0 0
M  V30 32 C -1.5826 -0.8364 0.0 0
M  V30 33 O -1.0826 -1.7024 0.0 0
M  V30 34 C 0.6386 -2.1636 0.0 0
M  V30 35 C -2.5771 -0.7318 0.0 0
M  V30 36 C -2.9839 0.1816 0.0 0
M  V30 37 C -3.1649 -1.5408 0.0 0
M  V30 38 C -3.9784 0.2861 0.0 0
M  V30 39 C -4.1595 -1.4363 0.0 0
M  V30 40 C -4.5662 -0.5228 0.0 0
M  V30 END ATOM
M  V30 BEGIN BOND
M  V30 1 2 1 2
M  V30 2 1 2 3
M  V30 3 1 2 4
M  V30 4 1 3 5
M  V30 5 1 4 6
M  V30 6 1 4 7
M  V30 7 2 5 8
M  V30 8 1 5 9
M  V30 9 1 6 10
M  V30 10 1 7 11
M  V30 11 1 8 12
M  V30 12 2 9 13
M  V30 13 1 10 14 CFG=1
M  V30 14 1 11 15 CFG=3
M  V30 15 2 12 16
M  V30 16 1 14 17
M  V30 17 1 15 18
M  V30 18 2 17 19
M  V30 19 1 17 20
M  V30 20 2 18 21
M  V30 21 1 18 22
M  V30 22 1 19 23
M  V30 23 2 20 24
M  V30 24 1 23 25
M  V30 25 2 23 26
M  V30 26 1 25 27
M  V30 27 1 27 28
M  V30 28 1 28 29
M  V30 29 1 29 30
M  V30 30 2 29 31
M  V30 31 2 30 32
M  V30 32 1 31 33
M  V30 33 1 31 34
M  V30 34 1 32 35
M  V30 35 2 35 36
M  V30 36 1 35 37
M  V30 37 1 36 38
M  V30 38 2 37 39
M  V30 39 2 38 40
M  V30 40 1 10 11
M  V30 41 1 13 16
M  V30 42 1 24 26
M  V30 43 1 32 33
M  V30 44 1 39 40
M  V30 END BOND
M  V30 BEGIN COLLECTION
M  V30 MDLV30/STEABS ATOMS=(2 10 11)
M  V30 END COLLECTION
M  V30 END CTAB
M  END
>  <Molecule ChEMBL ID>
CHEMBL3398463

>  <Smiles>
Cc1oc(-c2ccccc2)nc1CCOc1cccc(C[C@H]2CN(C(=O)Oc3ccccc3)C[C@@H]2CC(=O)O)c1

>  <IC50_nM>
210

>  <Assay Description>
Binding affinity to PPARgamma (unknown origin) using fluorescein-tagged dual PPARalpha/gamma activator by homogeneous fluorescence polarization binding assay

$$$$
CHEMBL191149
Actelion Java MolfileCreator 2.0

  0  0  0  0  0  0              0 V3000
M  V30 BEGIN CTAB
M  V30 COUNTS 31 33 0 0 0
M  V30 BEGIN ATOM
M  V30 1 O 9.734 -4.1613 0.0 0
M  V30 2 C 9.2681 -2.7274 0.0 0
M  V30 3 N 10.1543 -1.5076 0.0 0
M  V30 4 C 7.8342 -2.2615 0.0 0
M  V30 5 O 9.2681 -0.2879 0.0 0
M  V30 6 C 11.662 -1.5076 0.0 0
M  V30 7 C 7.8342 -0.7538 0.0 0
M  V30 8 C 6.5285 -3.0153 0.0 0
M  V30 9 C 6.5285 0.0 0.0 0
M  V30 10 C 5.2228 -2.2615 0.0 0
M  V30 11 C 5.2228 -0.7538 0.0 0
M  V30 12 C 6.5285 1.5076 0.0 0
M  V30 13 C 3.9578 -3.3056 0.0 0
M  V30 14 O 3.9171 0.0 0.0 0
M  V30 15 C 7.8342 2.2615 0.0 0
M  V30 16 C 3.9171 -4.523 0.0 0
M  V30 17 C 2.6114 -0.7538 0.0 0 CFG=1
M  V30 18 C 9.1399 1.5076 0.0 0
M  V30 19 C 2.6114 -5.2769 0.0 0
M  V30 20 C 1.3057 0.0 0.0 0
M  V30 21 C 2.6114 -2.2615 0.0 0
M  V30 22 C 0.0 -0.7538 0.0 0
M  V30 23 C 1.3057 1.5076 0.0 0
M  V30 24 O 3.8937 -2.8492 0.0 0
M  V30 25 O 1.3057 -3.0153 0.0 0
M  V30 26 C -1.3057 0.0 0.0 0
M  V30 27 C 0.0 2.2615 0.0 0
M  V30 28 C -1.3057 1.5076 0.0 0
M  V30 29 C -2.6114 2.2615 0.0 0
M  V30 30 C -3.9171 1.5076 0.0 0
M  V30 31 C -2.6114 3.7692 0.0 0
M  V30 END ATOM
M  V30 BEGIN BOND
M  V30 1 2 1 2
M  V30 2 1 2 3
M  V30 3 1 2 4
M  V30 4 1 3 5
M  V30 5 1 3 6
M  V30 6 2 4 7
M  V30 7 1 4 8
M  V30 8 1 7 9
M  V30 9 2 8 10
M  V30 10 2 9 11
M  V30 11 1 9 12
M  V30 12 1 10 13
M  V30 13 1 11 14
M  V30 14 1 12 15
M  V30 15 1 13 16
M  V30 16 1 17 14 CFG=3
M  V30 17 1 15 18
M  V30 18 1 16 19
M  V30 19 1 17 20
M  V30 20 1 17 21
M  V30 21 2 20 22
M  V30 22 1 20 23
M  V30 23 2 21 24
M  V30 24 1 21 25
M  V30 25 1 22 26
M  V30 26 2 23 27
M  V30 27 2 26 28
M  V30 28 1 28 29
M  V30 29 1 29 30
M  V30 30 1 29 31
M  V30 31 1 5 7
M  V30 32 1 10 11
M  V30 33 1 27 28
M  V30 END BOND
M  V30 BEGIN COLLECTION
M  V30 MDLV30/STEABS ATOMS=(1 17)
M  V30 END COLLECTION
M  V30 END CTAB
M  END
>  <Molecule ChEMBL ID>
CHEMBL191149

>  <Smiles>
CCCc1cc2c(=O)n(C)oc2c(CCC)c1O[C@H](C(=O)O)c1ccc(C(C)C)cc1

>  <IC50_nM>
210

>  <Assay Description>
In vitro binding affinity for human PPAR gamma

$$$$
CHEMBL121
Actelion Java MolfileCreator 2.0

  0  0  0  0  0  0              0 V3000
M  V30 BEGIN CTAB
M  V30 COUNTS 25 27 0 0 0
M  V30 BEGIN ATOM
M  V30 1 S 7.8987 0.0054 0.0 0
M  V30 2 C 8.8769 -0.2024 0.0 0
M  V30 3 C 7.7942 0.9999 0.0 0 CFG=2
M  V30 4 O 9.2836 -1.1159 0.0 0
M  V30 5 N 9.3769 0.6635 0.0 0
M  V30 6 C 8.7077 1.4067 0.0 0
M  V30 7 C 6.9282 1.4999 0.0 0
M  V30 8 O 8.9156 2.3848 0.0 0
M  V30 9 C 6.0621 0.9999 0.0 0
M  V30 10 C 5.1961 1.4999 0.0 0
M  V30 11 C 6.0621 0.0 0.0 0
M  V30 12 C 4.3301 0.9999 0.0 0
M  V30 13 C 5.1961 -0.5 0.0 0
M  V30 14 C 4.3301 0.0 0.0 0
M  V30 15 O 3.4641 -0.5 0.0 0
M  V30 16 C 2.598 0.0 0.0 0
M  V30 17 C 1.732 -0.5 0.0 0
M  V30 18 N 0.866 0.0 0.0 0
M  V30 19 C 0.866 1.0 0.0 0
M  V30 20 C 0.0 -0.5 0.0 0
M  V30 21 N 1.732 1.4999 0.0 0
M  V30 22 C 0.0 1.4999 0.0 0
M  V30 23 C 1.732 2.5 0.0 0
M  V30 24 C 0.0 2.5 0.0 0
M  V30 25 C 0.866 3.0 0.0 0
M  V30 END ATOM
M  V30 BEGIN BOND
M  V30 1 1 1 2
M  V30 2 1 1 3
M  V30 3 2 2 4
M  V30 4 1 2 5
M  V30 5 1 3 6
M  V30 6 1 3 7 CFG=1
M  V30 7 2 6 8
M  V30 8 1 7 9
M  V30 9 2 9 10
M  V30 10 1 9 11
M  V30 11 1 10 12
M  V30 12 2 11 13
M  V30 13 2 12 14
M  V30 14 1 14 15
M  V30 15 1 15 16
M  V30 16 1 16 17
M  V30 17 1 17 18
M  V30 18 1 18 19
M  V30 19 1 18 20
M  V30 20 2 19 21
M  V30 21 1 19 22
M  V30 22 1 21 23
M  V30 23 2 22 24
M  V30 24 2 23 25
M  V30 25 1 5 6
M  V30 26 1 13 14
M  V30 27 1 24 25
M  V30 END BOND
M  V30 BEGIN COLLECTION
M  V30 MDLV30/STERAC1 ATOMS=(1 3)
M  V30 END COLLECTION
M  V30 END CTAB
M  END
>  <Molecule ChEMBL ID>
CHEMBL121

>  <Smiles>
CN(CCOc1ccc(CC2SC(=O)NC2=O)cc1)c1ccccn1

>  <IC50_nM>
210

>  <Assay Description>
In vitro binding affinity for human PPAR gamma in SPA

$$$$
CHEMBL121106
Actelion Java MolfileCreator 2.0

  0  0  0  0  0  0              0 V3000
M  V30 BEGIN CTAB
M  V30 COUNTS 25 27 0 0 0
M  V30 BEGIN ATOM
M  V30 1 S 7.8987 0.0054 0.0 0
M  V30 2 C 8.8769 -0.2024 0.0 0
M  V30 3 C 7.7942 0.9999 0.0 0 CFG=2
M  V30 4 O 9.2836 -1.1159 0.0 0
M  V30 5 N 9.3769 0.6635 0.0 0
M  V30 6 C 8.7077 1.4067 0.0 0
M  V30 7 C 6.9282 1.4999 0.0 0
M  V30 8 O 8.9156 2.3848 0.0 0
M  V30 9 C 6.0621 0.9999 0.0 0
M  V30 10 C 5.1961 1.4999 0.0 0
M  V30 11 C 6.0621 0.0 0.0 0
M  V30 12 C 4.3301 0.9999 0.0 0
M  V30 13 C 5.1961 -0.5 0.0 0
M  V30 14 C 4.3301 0.0 0.0 0
M  V30 15 O 3.4641 -0.5 0.0 0
M  V30 16 C 2.598 0.0 0.0 0
M  V30 17 C 1.732 -0.5 0.0 0
M  V30 18 N 0.866 0.0 0.0 0
M  V30 19 C 0.866 1.0 0.0 0
M  V30 20 C 0.0 -0.5 0.0 0
M  V30 21 N 1.732 1.4999 0.0 0
M  V30 22 C 0.0 1.4999 0.0 0
M  V30 23 C 1.732 2.5 0.0 0
M  V30 24 C 0.0 2.5 0.0 0
M  V30 25 C 0.866 3.0 0.0 0
M  V30 END ATOM
M  V30 BEGIN BOND
M  V30 1 1 1 2
M  V30 2 1 1 3
M  V30 3 2 2 4
M  V30 4 1 2 5
M  V30 5 1 3 6
M  V30 6 1 3 7 CFG=1
M  V30 7 2 6 8
M  V30 8 1 7 9
M  V30 9 2 9 10
M  V30 10 1 9 11
M  V30 11 1 10 12
M  V30 12 2 11 13
M  V30 13 2 12 14
M  V30 14 1 14 15
M  V30 15 1 15 16
M  V30 16 1 16 17
M  V30 17 1 17 18
M  V30 18 1 18 19
M  V30 19 1 18 20
M  V30 20 2 19 21
M  V30 21 1 19 22
M  V30 22 1 21 23
M  V30 23 2 22 24
M  V30 24 2 23 25
M  V30 25 1 5 6
M  V30 26 1 13 14
M  V30 27 1 24 25
M  V30 END BOND
M  V30 BEGIN COLLECTION
M  V30 MDLV30/STEABS ATOMS=(1 3)
M  V30 END COLLECTION
M  V30 END CTAB
M  END
>  <Molecule ChEMBL ID>
CHEMBL121106

>  <Smiles>
CN(CCOc1ccc(C[C@@H]2SC(=O)NC2=O)cc1)c1ccccn1

>  <IC50_nM>
210

>  <Assay Description>
Displacement of radio-labeled full agonist from PPARgamma receptor

$$$$
CHEMBL202240
Actelion Java MolfileCreator 2.0

  0  0  0  0  0  0              0 V3000
M  V30 BEGIN CTAB
M  V30 COUNTS 33 36 0 0 0
M  V30 BEGIN ATOM
M  V30 1 F 7.7942 -6.0 0.0 0
M  V30 2 C 7.7942 -5.0 0.0 0
M  V30 3 C 8.6602 -4.5 0.0 0
M  V30 4 C 6.9282 -4.5 0.0 0
M  V30 5 C 8.6602 -3.5 0.0 0
M  V30 6 C 6.9282 -3.5 0.0 0
M  V30 7 C 7.7942 -3.0 0.0 0
M  V30 8 C 7.7942 -2.0 0.0 0
M  V30 9 O 8.6602 -1.5 0.0 0
M  V30 10 C 6.9282 -1.5 0.0 0
M  V30 11 C 6.9282 -0.5 0.0 0
M  V30 12 C 6.0621 -2.0 0.0 0
M  V30 13 C 6.0621 0.0 0.0 0
M  V30 14 C 5.1961 -1.5 0.0 0
M  V30 15 C 5.1961 -0.5 0.0 0
M  V30 16 O 4.3301 0.0 0.0 0
M  V30 17 C 3.4641 -0.5 0.0 0
M  V30 18 C 2.598 0.0 0.0 0
M  V30 19 C 1.732 -0.5 0.0 0
M  V30 20 O 0.866 0.0 0.0 0
M  V30 21 C 0.0 -0.5 0.0 0
M  V30 22 C 0.0 -1.4999 0.0 0
M  V30 23 C -0.866 0.0 0.0 0
M  V30 24 C -0.866 -1.9999 0.0 0
M  V30 25 C -1.732 -0.4999 0.0 0
M  V30 26 C -1.732 -1.4999 0.0 0
M  V30 27 C -1.0739 -2.9781 0.0 0
M  V30 28 N -2.4751 -2.1691 0.0 0
M  V30 29 C -2.0684 -3.0826 0.0 0
M  V30 30 C -3.4533 -1.9612 0.0 0
M  V30 31 C -3.7623 -1.0101 0.0 0
M  V30 32 O -3.0932 -0.267 0.0 0
M  V30 33 O -4.7405 -0.8022 0.0 0
M  V30 END ATOM
M  V30 BEGIN BOND
M  V30 1 1 1 2
M  V30 2 2 2 3
M  V30 3 1 2 4
M  V30 4 1 3 5
M  V30 5 2 4 6
M  V30 6 2 5 7
M  V30 7 1 7 8
M  V30 8 2 8 9
M  V30 9 1 8 10
M  V30 10 2 10 11
M  V30 11 1 10 12
M  V30 12 1 11 13
M  V30 13 2 12 14
M  V30 14 2 13 15
M  V30 15 1 15 16
M  V30 16 1 16 17
M  V30 17 1 17 18
M  V30 18 1 18 19
M  V30 19 1 19 20
M  V30 20 1 20 21
M  V30 21 2 21 22
M  V30 22 1 21 23
M  V30 23 1 22 24
M  V30 24 2 23 25
M  V30 25 2 24 26
M  V30 26 1 24 27
M  V30 27 1 26 28
M  V30 28 2 27 29
M  V30 29 1 28 30
M  V30 30 1 30 31
M  V30 31 2 31 32
M  V30 32 1 31 33
M  V30 33 1 6 7
M  V30 34 1 14 15
M  V30 35 1 25 26
M  V30 36 1 28 29
M  V30 END BOND
M  V30 END CTAB
M  END
>  <Molecule ChEMBL ID>
CHEMBL202240

>  <Smiles>
O=C(O)Cn1ccc2cc(OCCCOc3ccc(C(=O)c4ccc(F)cc4)cc3)ccc21

>  <IC50_nM>
213

>  <Assay Description>
Displacement of [3H]rosiglitazone from human PPAR gamma by SPA assay

$$$$
CHEMBL3678152
Actelion Java MolfileCreator 2.0

  0  0  0  0  0  0              0 V3000
M  V30 BEGIN CTAB
M  V30 COUNTS 39 42 0 0 0
M  V30 BEGIN ATOM
M  V30 1 F 6.5621 -1.1339 0.0 0
M  V30 2 C 6.0621 -1.9999 0.0 0
M  V30 3 F 6.9282 -2.5 0.0 0
M  V30 4 F 5.5621 -2.866 0.0 0
M  V30 5 C 5.1961 -1.4999 0.0 0
M  V30 6 C 5.1961 -0.5 0.0 0
M  V30 7 C 4.3301 -1.9999 0.0 0
M  V30 8 C 4.3301 0.0 0.0 0
M  V30 9 C 3.4641 -1.5 0.0 0
M  V30 10 C 3.4641 -0.5 0.0 0
M  V30 11 C 2.598 0.0 0.0 0 CFG=1
M  V30 12 N 1.732 -0.5 0.0 0
M  V30 13 C 2.598 1.0 0.0 0
M  V30 14 C 0.866 0.0 0.0 0
M  V30 15 O 0.866 1.0 0.0 0
M  V30 16 C 0.0 -0.5 0.0 0
M  V30 17 C 0.0 -1.4999 0.0 0
M  V30 18 C -0.866 0.0 0.0 0
M  V30 19 C -0.866 -1.9999 0.0 0
M  V30 20 C -1.732 -0.4999 0.0 0
M  V30 21 C -1.732 -1.4999 0.0 0
M  V30 22 C -1.0739 -2.9781 0.0 0
M  V30 23 N -2.4751 -2.1691 0.0 0
M  V30 24 C -2.0684 -3.0826 0.0 0
M  V30 25 C -0.4048 -3.7212 0.0 0
M  V30 26 C -3.4533 -1.9612 0.0 0
M  V30 27 C -2.5684 -3.9487 0.0 0
M  V30 28 C -4.1224 -2.7043 0.0 0
M  V30 29 C -5.1006 -2.4964 0.0 0
M  V30 30 C -3.8134 -3.6554 0.0 0
M  V30 31 C -5.7697 -3.2395 0.0 0
M  V30 32 C -4.4825 -4.3985 0.0 0
M  V30 33 O -6.7478 -3.0316 0.0 0
M  V30 34 C -5.4607 -4.1906 0.0 0
M  V30 35 C -7.417 -3.7748 0.0 0 CFG=2
M  V30 36 C -8.3951 -3.5669 0.0 0
M  V30 37 C -7.108 -4.7258 0.0 0
M  V30 38 O -8.7041 -2.6158 0.0 0
M  V30 39 O -9.0643 -4.31 0.0 0
M  V30 END ATOM
M  V30 BEGIN BOND
M  V30 1 1 1 2
M  V30 2 1 2 3
M  V30 3 1 2 4
M  V30 4 1 2 5
M  V30 5 2 5 6
M  V30 6 1 5 7
M  V30 7 1 6 8
M  V30 8 2 7 9
M  V30 9 2 8 10
M  V30 10 1 10 11
M  V30 11 1 11 12
M  V30 12 1 11 13 CFG=1
M  V30 13 1 12 14
M  V30 14 2 14 15
M  V30 15 1 14 16
M  V30 16 2 16 17
M  V30 17 1 16 18
M  V30 18 1 17 19
M  V30 19 2 18 20
M  V30 20 2 19 21
M  V30 21 1 19 22
M  V30 22 1 21 23
M  V30 23 2 22 24
M  V30 24 1 22 25
M  V30 25 1 23 26
M  V30 26 1 24 27
M  V30 27 1 26 28
M  V30 28 2 28 29
M  V30 29 1 28 30
M  V30 30 1 29 31
M  V30 31 2 30 32
M  V30 32 1 31 33
M  V30 33 2 31 34
M  V30 34 1 33 35
M  V30 35 1 35 36
M  V30 36 1 35 37 CFG=1
M  V30 37 2 36 38
M  V30 38 1 36 39
M  V30 39 1 9 10
M  V30 40 1 20 21
M  V30 41 1 23 24
M  V30 42 1 32 34
M  V30 END BOND
M  V30 BEGIN COLLECTION
M  V30 MDLV30/STEABS ATOMS=(2 11 35)
M  V30 END COLLECTION
M  V30 END CTAB
M  END
>  <Molecule ChEMBL ID>
CHEMBL3678152

>  <Smiles>
Cc1c(C)n(Cc2cccc(O[C@@H](C)C(=O)O)c2)c2ccc(C(=O)N[C@@H](C)c3ccc(C(F)(F)F)cc3)cc12

>  <IC50_nM>
213

>  <Assay Description>
Lanthascreen Competitive Binding Assay: The assay was performed according to manufacturer protocol. A mixture of 5 nM GST-PPARG-LBD, 5 nM Tb-GST-antibody, 5 nM Fluormone Pan- PPAR Green, and serial dilutions of the experimental compound, beginning at 10 ׬� downwards, was added to wells of black 384-well low- volume plates (Greiner) to a total volume of 18 xL. All dilutions were made in TR-FRET assay buffer C. DMSO at 2% final concentration was used as a no-ligand control. Experiment was performed in triplicate, and incubated for 2 hours in the dark prior to assay read in Perkin Elmer ViewLux ultra HTS microplate reader. FRET signal was measured by excitation at 340 nm and emission at 520 nm for fluorescein and 490 nm for terbium.

$$$$
CHEMBL393926
Actelion Java MolfileCreator 2.0

  0  0  0  0  0  0              0 V3000
M  V30 BEGIN CTAB
M  V30 COUNTS 32 34 0 0 0
M  V30 BEGIN ATOM
M  V30 1 O 8.6602 -4.5 0.0 0
M  V30 2 C 8.6602 -3.5 0.0 0
M  V30 3 O 9.5262 -3.0 0.0 0
M  V30 4 C 7.7942 -3.0 0.0 0
M  V30 5 C 7.7942 -2.0 0.0 0
M  V30 6 C 6.9282 -1.5 0.0 0
M  V30 7 C 6.9282 -0.5 0.0 0
M  V30 8 C 6.0621 -2.0 0.0 0
M  V30 9 C 6.0621 0.0 0.0 0
M  V30 10 C 7.7942 0.0 0.0 0
M  V30 11 C 5.1961 -1.5 0.0 0
M  V30 12 C 5.1961 -0.5 0.0 0
M  V30 13 O 4.3301 0.0 0.0 0
M  V30 14 C 3.4641 -0.5 0.0 0
M  V30 15 C 2.598 0.0 0.0 0
M  V30 16 C 1.732 -0.5 0.0 0 CFG=2
M  V30 17 O 0.866 0.0 0.0 0
M  V30 18 C 1.732 -1.5 0.0 0
M  V30 19 C 0.0 -0.5 0.0 0
M  V30 20 C -0.866 0.0 0.0 0
M  V30 21 C 0.0 -1.4999 0.0 0
M  V30 22 C -0.866 1.0 0.0 0
M  V30 23 C -1.732 -0.4999 0.0 0
M  V30 24 C -0.866 -1.9999 0.0 0
M  V30 25 C 0.0 1.4999 0.0 0
M  V30 26 C -1.732 1.5 0.0 0
M  V30 27 C -1.732 -1.4999 0.0 0
M  V30 28 C 0.0 2.4999 0.0 0
M  V30 29 C -1.732 2.5 0.0 0
M  V30 30 C -2.598 -1.9999 0.0 0
M  V30 31 C -0.866 3.0 0.0 0
M  V30 32 C -2.598 -2.9999 0.0 0
M  V30 END ATOM
M  V30 BEGIN BOND
M  V30 1 2 1 2
M  V30 2 1 2 3
M  V30 3 1 2 4
M  V30 4 1 4 5
M  V30 5 1 5 6
M  V30 6 2 6 7
M  V30 7 1 6 8
M  V30 8 1 7 9
M  V30 9 1 7 10
M  V30 10 2 8 11
M  V30 11 2 9 12
M  V30 12 1 12 13
M  V30 13 1 13 14
M  V30 14 1 14 15
M  V30 15 1 15 16
M  V30 16 1 16 17
M  V30 17 1 16 18 CFG=1
M  V30 18 1 17 19
M  V30 19 2 19 20
M  V30 20 1 19 21
M  V30 21 1 20 22
M  V30 22 1 20 23
M  V30 23 2 21 24
M  V30 24 2 22 25
M  V30 25 1 22 26
M  V30 26 2 23 27
M  V30 27 1 25 28
M  V30 28 2 26 29
M  V30 29 1 27 30
M  V30 30 2 28 31
M  V30 31 1 30 32
M  V30 32 1 11 12
M  V30 33 1 24 27
M  V30 34 1 29 31
M  V30 END BOND
M  V30 BEGIN COLLECTION
M  V30 MDLV30/STEABS ATOMS=(1 16)
M  V30 END COLLECTION
M  V30 END CTAB
M  END
>  <Molecule ChEMBL ID>
CHEMBL393926

>  <Smiles>
CCc1ccc(O[C@H](C)CCOc2ccc(CCC(=O)O)c(C)c2)c(-c2ccccc2)c1

>  <IC50_nM>
215

>  <Assay Description>
Displacement of [3H]2-methyl-2-(4-{3-[porpyl-(5-pyridin-2yl-thiophene-2-sulfonyl)-amino]-propyl}-phenoxy)-propionic acid from human PPARgamma

$$$$
CHEMBL257165
Actelion Java MolfileCreator 2.0

  0  0  0  0  0  0              0 V3000
M  V30 BEGIN CTAB
M  V30 COUNTS 38 41 0 0 0
M  V30 BEGIN ATOM
M  V30 1 O 9.0932 -4.4999 0.0 0
M  V30 2 C 7.7942 -5.25 0.0 0
M  V30 3 O 7.7942 -6.75 0.0 0
M  V30 4 N 6.4951 -4.4999 0.0 0
M  V30 5 C 6.4951 -7.5 0.0 0
M  V30 6 C 5.1961 -5.25 0.0 0
M  V30 7 C 6.4951 -3.0 0.0 0
M  V30 8 C 6.4951 -9.0 0.0 0
M  V30 9 C 3.8971 -4.5 0.0 0
M  V30 10 C 5.1961 -2.2499 0.0 0
M  V30 11 C 7.7942 -9.75 0.0 0
M  V30 12 C 5.1961 -9.75 0.0 0
M  V30 13 C 3.8971 -3.0 0.0 0
M  V30 14 C 2.598 -5.25 0.0 0
M  V30 15 C 2.598 -2.25 0.0 0
M  V30 16 C 2.598 -6.75 0.0 0
M  V30 17 O 1.299 -3.0 0.0 0
M  V30 18 O 2.598 -0.75 0.0 0
M  V30 19 C 1.299 -7.5 0.0 0
M  V30 20 C 3.8971 -7.5 0.0 0
M  V30 21 C 1.299 -9.0 0.0 0
M  V30 22 C 3.8971 -9.0 0.0 0
M  V30 23 C 2.598 -9.75 0.0 0
M  V30 24 O 2.598 -11.25 0.0 0
M  V30 25 C 3.8971 -12.0 0.0 0
M  V30 26 C 3.8971 -13.5 0.0 0
M  V30 27 C 5.1961 -14.25 0.0 0
M  V30 28 N 5.3529 -15.7417 0.0 0
M  V30 29 C 6.5664 -13.6398 0.0 0
M  V30 30 C 6.8201 -16.0536 0.0 0
M  V30 31 O 7.5701 -14.7546 0.0 0
M  V30 32 C 6.8783 -12.1726 0.0 0
M  V30 33 C 7.4302 -17.4239 0.0 0
M  V30 34 C 6.5485 -18.6374 0.0 0
M  V30 35 C 8.922 -17.5807 0.0 0
M  V30 36 C 7.1586 -20.0078 0.0 0
M  V30 37 C 9.5321 -18.951 0.0 0
M  V30 38 C 8.6504 -20.1646 0.0 0
M  V30 END ATOM
M  V30 BEGIN BOND
M  V30 1 2 1 2
M  V30 2 1 2 3
M  V30 3 1 2 4
M  V30 4 1 3 5
M  V30 5 1 4 6
M  V30 6 1 4 7
M  V30 7 1 5 8
M  V30 8 1 6 9
M  V30 9 1 7 10
M  V30 10 1 8 11
M  V30 11 1 8 12
M  V30 12 1 9 13
M  V30 13 1 9 14
M  V30 14 1 13 15
M  V30 15 1 14 16
M  V30 16 2 15 17
M  V30 17 1 15 18
M  V30 18 2 16 19
M  V30 19 1 16 20
M  V30 20 1 19 21
M  V30 21 2 20 22
M  V30 22 2 21 23
M  V30 23 1 23 24
M  V30 24 1 24 25
M  V30 25 1 25 26
M  V30 26 1 26 27
M  V30 27 1 27 28
M  V30 28 2 27 29
M  V30 29 2 28 30
M  V30 30 1 29 31
M  V30 31 1 29 32
M  V30 32 1 30 33
M  V30 33 2 33 34
M  V30 34 1 33 35
M  V30 35 1 34 36
M  V30 36 2 35 37
M  V30 37 2 36 38
M  V30 38 1 10 13
M  V30 39 1 22 23
M  V30 40 1 30 31
M  V30 41 1 37 38
M  V30 END BOND
M  V30 END CTAB
M  END
>  <Molecule ChEMBL ID>
CHEMBL257165

>  <Smiles>
Cc1oc(-c2ccccc2)nc1CCOc1ccc(CC2CN(C(=O)OCC(C)C)CCC2C(=O)O)cc1

>  <IC50_nM>
215

>  <Assay Description>
Binding affinity at human PPARalpha by fluorescence polarization

$$$$
CHEMBL107367
Actelion Java MolfileCreator 2.0

  0  0  0  0  0  0              0 V3000
M  V30 BEGIN CTAB
M  V30 COUNTS 41 45 0 0 0
M  V30 BEGIN ATOM
M  V30 1 O 5.1961 2.25 0.0 0
M  V30 2 C 6.4951 1.4999 0.0 0
M  V30 3 C 6.4951 0.0 0.0 0
M  V30 4 C 7.7942 2.2499 0.0 0
M  V30 5 C 5.1961 -0.75 0.0 0
M  V30 6 C 7.7942 -0.75 0.0 0
M  V30 7 C 9.0932 1.4999 0.0 0
M  V30 8 C 7.7942 3.7499 0.0 0
M  V30 9 N 3.8971 0.0 0.0 0
M  V30 10 C 5.1961 -2.25 0.0 0
M  V30 11 C 7.7942 -2.25 0.0 0
M  V30 12 C 10.3923 2.2499 0.0 0
M  V30 13 C 9.0932 4.4999 0.0 0
M  V30 14 C 2.598 -0.75 0.0 0 CFG=2
M  V30 15 C 6.4951 -3.0 0.0 0
M  V30 16 C 10.3923 3.7499 0.0 0
M  V30 17 C 2.598 -2.25 0.0 0
M  V30 18 C 1.299 0.0 0.0 0
M  V30 19 O 1.299 -3.0 0.0 0
M  V30 20 O 3.8971 -3.0 0.0 0
M  V30 21 C 0.0 -0.75 0.0 0
M  V30 22 C -1.299 0.0 0.0 0
M  V30 23 C 0.0 -2.2499 0.0 0
M  V30 24 C -2.598 -0.7499 0.0 0
M  V30 25 C -1.299 -2.9999 0.0 0
M  V30 26 C -2.598 -2.2499 0.0 0
M  V30 27 O -3.8971 -2.9999 0.0 0
M  V30 28 C -3.8971 -4.4999 0.0 0
M  V30 29 C -5.1961 -5.2499 0.0 0
M  V30 30 C -5.1961 -6.7499 0.0 0
M  V30 31 N -6.4096 -7.6316 0.0 0
M  V30 32 C -3.9826 -7.6316 0.0 0
M  V30 33 C -5.9461 -9.0582 0.0 0
M  V30 34 O -4.4461 -9.0582 0.0 0
M  V30 35 C -2.556 -7.1681 0.0 0
M  V30 36 C -6.8278 -10.2717 0.0 0
M  V30 37 C -8.3196 -10.1149 0.0 0
M  V30 38 C -6.2177 -11.6421 0.0 0
M  V30 39 C -9.2012 -11.3285 0.0 0
M  V30 40 C -7.0994 -12.8556 0.0 0
M  V30 41 C -8.5911 -12.6988 0.0 0
M  V30 END ATOM
M  V30 BEGIN BOND
M  V30 1 2 1 2
M  V30 2 1 2 3
M  V30 3 1 2 4
M  V30 4 2 3 5
M  V30 5 1 3 6
M  V30 6 2 4 7
M  V30 7 1 4 8
M  V30 8 1 5 9
M  V30 9 1 5 10
M  V30 10 2 6 11
M  V30 11 1 7 12
M  V30 12 2 8 13
M  V30 13 1 14 9 CFG=3
M  V30 14 2 10 15
M  V30 15 2 12 16
M  V30 16 1 14 17
M  V30 17 1 14 18
M  V30 18 2 17 19
M  V30 19 1 17 20
M  V30 20 1 18 21
M  V30 21 2 21 22
M  V30 22 1 21 23
M  V30 23 1 22 24
M  V30 24 2 23 25
M  V30 25 2 24 26
M  V30 26 1 26 27
M  V30 27 1 27 28
M  V30 28 1 28 29
M  V30 29 1 29 30
M  V30 30 1 30 31
M  V30 31 2 30 32
M  V30 32 2 31 33
M  V30 33 1 32 34
M  V30 34 1 32 35
M  V30 35 1 33 36
M  V30 36 2 36 37
M  V30 37 1 36 38
M  V30 38 1 37 39
M  V30 39 2 38 40
M  V30 40 2 39 41
M  V30 41 1 11 15
M  V30 42 1 13 16
M  V30 43 1 25 26
M  V30 44 1 33 34
M  V30 45 1 40 41
M  V30 END BOND
M  V30 BEGIN COLLECTION
M  V30 MDLV30/STEABS ATOMS=(1 14)
M  V30 END COLLECTION
M  V30 END CTAB
M  END
>  <Molecule ChEMBL ID>
CHEMBL107367

>  <Smiles>
Cc1oc(-c2ccccc2)nc1CCOc1ccc(C[C@H](Nc2ccccc2C(=O)c2ccccc2)C(=O)O)cc1

>  <IC50_nM>
217

>  <Assay Description>
Displacement of fluorescein labeled ligand from PPARgamma receptor by fluorescence polarization assay

$$$$
CHEMBL451321
Actelion Java MolfileCreator 2.0

  0  0  0  0  0  0              0 V3000
M  V30 BEGIN CTAB
M  V30 COUNTS 22 23 0 0 0
M  V30 BEGIN ATOM
M  V30 1 Cl 1.732 -4.5 0.0 0
M  V30 2 C 1.732 -3.5 0.0 0
M  V30 3 C 2.598 -3.0 0.0 0
M  V30 4 C 0.866 -2.9999 0.0 0
M  V30 5 C 2.598 -2.0 0.0 0
M  V30 6 C 0.866 -1.9999 0.0 0
M  V30 7 C 1.732 -1.5 0.0 0
M  V30 8 C 1.732 -0.5 0.0 0 CFG=1
M  V30 9 O 2.598 0.0 0.0 0
M  V30 10 C 0.866 0.0 0.0 0
M  V30 11 C 3.4641 -0.5 0.0 0
M  V30 12 O 0.866 1.0 0.0 0
M  V30 13 O 0.0 -0.5 0.0 0
M  V30 14 C 4.3301 0.0 0.0 0
M  V30 15 C 3.4641 -1.4999 0.0 0
M  V30 16 C 5.1961 -0.4999 0.0 0
M  V30 17 C 4.3301 -1.9999 0.0 0
M  V30 18 C 5.1961 -1.4999 0.0 0
M  V30 19 C 6.0621 0.0 0.0 0
M  V30 20 F 6.5621 -0.866 0.0 0
M  V30 21 F 6.9282 0.5 0.0 0
M  V30 22 F 5.5621 0.866 0.0 0
M  V30 END ATOM
M  V30 BEGIN BOND
M  V30 1 1 1 2
M  V30 2 2 2 3
M  V30 3 1 2 4
M  V30 4 1 3 5
M  V30 5 2 4 6
M  V30 6 2 5 7
M  V30 7 1 7 8
M  V30 8 1 8 9 CFG=3
M  V30 9 1 8 10
M  V30 10 1 9 11
M  V30 11 2 10 12
M  V30 12 1 10 13
M  V30 13 2 11 14
M  V30 14 1 11 15
M  V30 15 1 14 16
M  V30 16 2 15 17
M  V30 17 2 16 18
M  V30 18 1 16 19
M  V30 19 1 19 20
M  V30 20 1 19 21
M  V30 21 1 19 22
M  V30 22 1 6 7
M  V30 23 1 17 18
M  V30 END BOND
M  V30 BEGIN COLLECTION
M  V30 MDLV30/STERAC1 ATOMS=(1 8)
M  V30 END COLLECTION
M  V30 END CTAB
M  END
>  <Molecule ChEMBL ID>
CHEMBL451321

>  <Smiles>
O=C(O)C(Oc1cccc(C(F)(F)F)c1)c1ccc(Cl)cc1

>  <IC50_nM>
220

>  <Assay Description>
Antagonist activity at human PPARgamma receptor expressed in Saccharomyces cerevisiae AH109 co-transfected with mouse CBP assessed as inhibition of rosiglitazone-induced LBD-CBP interaction by alpha-galactosidase based yeast two hybrid assay

$$$$
CHEMBL188095
Actelion Java MolfileCreator 2.0

  0  0  0  0  0  0              0 V3000
M  V30 BEGIN CTAB
M  V30 COUNTS 30 32 0 0 0
M  V30 BEGIN ATOM
M  V30 1 Cl -1.732 1.4999 0.0 0
M  V30 2 C -0.866 0.9999 0.0 0
M  V30 3 C 0.0 1.4999 0.0 0
M  V30 4 C -0.866 0.0 0.0 0
M  V30 5 C 0.866 1.0 0.0 0
M  V30 6 C 0.0 -0.5 0.0 0
M  V30 7 C 0.866 0.0 0.0 0
M  V30 8 C 1.732 -0.5 0.0 0 CFG=2
M  V30 9 O 2.598 0.0 0.0 0
M  V30 10 C 1.732 -1.5 0.0 0
M  V30 11 C 3.4641 -0.5 0.0 0
M  V30 12 O 2.757 -2.0818 0.0 0
M  V30 13 O 0.866 -1.9999 0.0 0
M  V30 14 C 3.4641 -1.4999 0.0 0
M  V30 15 C 4.3301 0.0 0.0 0
M  V30 16 C 4.3301 -1.9999 0.0 0
M  V30 17 C 2.4764 -2.2142 0.0 0
M  V30 18 C 5.1961 -0.4999 0.0 0
M  V30 19 C 4.3301 1.0 0.0 0
M  V30 20 O 4.538 -2.9781 0.0 0
M  V30 21 C 5.1961 -1.4999 0.0 0
M  V30 22 C 2.598 -2.9999 0.0 0
M  V30 23 C 5.1961 1.5 0.0 0
M  V30 24 C 5.5325 -3.0826 0.0 0
M  V30 25 N 5.9392 -2.1691 0.0 0
M  V30 26 C 3.4641 -3.5 0.0 0
M  V30 27 C 6.0621 1.0 0.0 0
M  V30 28 O 6.0325 -3.9487 0.0 0
M  V30 29 C 6.9174 -1.9612 0.0 0
M  V30 30 C 7.2264 -1.0101 0.0 0
M  V30 END ATOM
M  V30 BEGIN BOND
M  V30 1 1 1 2
M  V30 2 2 2 3
M  V30 3 1 2 4
M  V30 4 1 3 5
M  V30 5 2 4 6
M  V30 6 2 5 7
M  V30 7 1 7 8
M  V30 8 1 8 9 CFG=3
M  V30 9 1 8 10
M  V30 10 1 9 11
M  V30 11 2 10 12
M  V30 12 1 10 13
M  V30 13 2 11 14
M  V30 14 1 11 15
M  V30 15 1 14 16
M  V30 16 1 14 17
M  V30 17 2 15 18
M  V30 18 1 15 19
M  V30 19 1 16 20
M  V30 20 2 16 21
M  V30 21 1 17 22
M  V30 22 1 19 23
M  V30 23 1 20 24
M  V30 24 1 21 25
M  V30 25 1 22 26
M  V30 26 1 23 27
M  V30 27 2 24 28
M  V30 28 1 25 29
M  V30 29 1 29 30
M  V30 30 1 6 7
M  V30 31 1 18 21
M  V30 32 1 24 25
M  V30 END BOND
M  V30 BEGIN COLLECTION
M  V30 MDLV30/STEABS ATOMS=(1 8)
M  V30 END COLLECTION
M  V30 END CTAB
M  END
>  <Molecule ChEMBL ID>
CHEMBL188095

>  <Smiles>
CCCc1cc2c(oc(=O)n2CC)c(CCC)c1O[C@H](C(=O)O)c1ccc(Cl)cc1

>  <IC50_nM>
220

>  <Assay Description>
In vitro binding affinity for human PPAR gamma

$$$$
CHEMBL426451
Actelion Java MolfileCreator 2.0

  0  0  0  0  0  0              0 V3000
M  V30 BEGIN CTAB
M  V30 COUNTS 28 29 0 0 0
M  V30 BEGIN ATOM
M  V30 1 Cl 4.2826 -3.1387 0.0 0
M  V30 2 C 5.2363 -2.2674 0.0 0
M  V30 3 C 5.2363 -0.7558 0.0 0
M  V30 4 C 6.5454 -3.0232 0.0 0
M  V30 5 O 3.9272 0.0 0.0 0
M  V30 6 C 6.5454 0.0 0.0 0
M  V30 7 C 7.8545 -2.2674 0.0 0
M  V30 8 C 2.6181 -0.7558 0.0 0 CFG=1
M  V30 9 C 7.8545 -0.7558 0.0 0
M  V30 10 C 6.5454 1.5116 0.0 0
M  V30 11 C 9.1636 -3.0232 0.0 0
M  V30 12 C 2.6181 -2.2674 0.0 0
M  V30 13 C 1.309 0.0 0.0 0
M  V30 14 C 7.8545 2.2674 0.0 0
M  V30 15 O 9.1636 -4.5348 0.0 0
M  V30 16 C 10.4726 -2.2674 0.0 0
M  V30 17 C 1.309 -3.0232 0.0 0
M  V30 18 C 3.7455 -2.9641 0.0 0
M  V30 19 O 1.309 1.5116 0.0 0
M  V30 20 O 0.0 -0.7558 0.0 0
M  V30 21 C 7.8545 3.779 0.0 0
M  V30 22 C 11.7817 -3.0232 0.0 0
M  V30 23 C 1.309 -4.5348 0.0 0
M  V30 24 C 3.9272 -4.5348 0.0 0
M  V30 25 C 2.6181 -5.2906 0.0 0
M  V30 26 C 2.6181 -6.8022 0.0 0
M  V30 27 C 1.309 -7.558 0.0 0
M  V30 28 C 3.9272 -7.558 0.0 0
M  V30 END ATOM
M  V30 BEGIN BOND
M  V30 1 1 1 2
M  V30 2 2 2 3
M  V30 3 1 2 4
M  V30 4 1 3 5
M  V30 5 1 3 6
M  V30 6 2 4 7
M  V30 7 1 8 5 CFG=1
M  V30 8 2 6 9
M  V30 9 1 6 10
M  V30 10 1 7 11
M  V30 11 1 8 12
M  V30 12 1 8 13
M  V30 13 1 10 14
M  V30 14 2 11 15
M  V30 15 1 11 16
M  V30 16 2 12 17
M  V30 17 1 12 18
M  V30 18 2 13 19
M  V30 19 1 13 20
M  V30 20 1 14 21
M  V30 21 1 16 22
M  V30 22 1 17 23
M  V30 23 2 18 24
M  V30 24 2 23 25
M  V30 25 1 25 26
M  V30 26 1 26 27
M  V30 27 1 26 28
M  V30 28 1 7 9
M  V30 29 1 24 25
M  V30 END BOND
M  V30 BEGIN COLLECTION
M  V30 MDLV30/STEABS ATOMS=(1 8)
M  V30 END COLLECTION
M  V30 END CTAB
M  END
>  <Molecule ChEMBL ID>
CHEMBL426451

>  <Smiles>
CCCc1cc(C(=O)CC)cc(Cl)c1O[C@H](C(=O)O)c1ccc(C(C)C)cc1

>  <IC50_nM>
220

>  <Assay Description>
In vitro binding affinity for human PPAR gamma

$$$$
CHEMBL188751
Actelion Java MolfileCreator 2.0

  0  0  0  0  0  0              0 V3000
M  V30 BEGIN CTAB
M  V30 COUNTS 31 32 0 0 0
M  V30 BEGIN ATOM
M  V30 1 O 3.9411 -3.0338 0.0 0
M  V30 2 C 2.6274 -2.2754 0.0 0
M  V30 3 O 1.6098 -2.7969 0.0 0
M  V30 4 C 2.6274 -0.7584 0.0 0 CFG=1
M  V30 5 O 1.3137 0.0 0.0 0
M  V30 6 C 3.9411 0.0 0.0 0
M  V30 7 C 0.0 -0.7584 0.0 0
M  V30 8 C 3.9411 1.5169 0.0 0
M  V30 9 C 5.2548 -0.7584 0.0 0
M  V30 10 C -1.3137 0.0 0.0 0
M  V30 11 C 0.0 -2.2754 0.0 0
M  V30 12 C 5.2548 2.2754 0.0 0
M  V30 13 C 6.5685 0.0 0.0 0
M  V30 14 C -2.6274 -0.7584 0.0 0
M  V30 15 C -1.3137 1.5169 0.0 0
M  V30 16 C -1.3137 -3.0338 0.0 0
M  V30 17 C 1.1656 -3.1523 0.0 0
M  V30 18 C 6.5685 1.5169 0.0 0
M  V30 19 C -2.6274 -2.2754 0.0 0
M  V30 20 C 0.0 2.2754 0.0 0
M  V30 21 C 1.3137 -4.5508 0.0 0
M  V30 22 C 7.8823 2.2754 0.0 0
M  V30 23 C -3.9411 -3.0338 0.0 0
M  V30 24 C 0.0 3.7923 0.0 0
M  V30 25 C 0.0 -5.3093 0.0 0
M  V30 26 C 7.8823 3.7923 0.0 0
M  V30 27 O -3.9411 -4.5508 0.0 0
M  V30 28 C -5.2548 -2.2754 0.0 0
M  V30 29 C 6.5685 4.5508 0.0 0
M  V30 30 C 9.196 4.5508 0.0 0
M  V30 31 C -6.5685 -3.0338 0.0 0
M  V30 END ATOM
M  V30 BEGIN BOND
M  V30 1 2 1 2
M  V30 2 1 2 3
M  V30 3 1 2 4
M  V30 4 1 4 5 CFG=1
M  V30 5 1 4 6
M  V30 6 1 5 7
M  V30 7 2 6 8
M  V30 8 1 6 9
M  V30 9 2 7 10
M  V30 10 1 7 11
M  V30 11 1 8 12
M  V30 12 2 9 13
M  V30 13 1 10 14
M  V30 14 1 10 15
M  V30 15 2 11 16
M  V30 16 1 11 17
M  V30 17 2 12 18
M  V30 18 2 14 19
M  V30 19 1 15 20
M  V30 20 1 17 21
M  V30 21 1 18 22
M  V30 22 1 19 23
M  V30 23 1 20 24
M  V30 24 1 21 25
M  V30 25 1 22 26
M  V30 26 2 23 27
M  V30 27 1 23 28
M  V30 28 1 26 29
M  V30 29 1 26 30
M  V30 30 1 28 31
M  V30 31 1 13 18
M  V30 32 1 16 19
M  V30 END BOND
M  V30 BEGIN COLLECTION
M  V30 MDLV30/STEABS ATOMS=(1 4)
M  V30 END COLLECTION
M  V30 END CTAB
M  END
>  <Molecule ChEMBL ID>
CHEMBL188751

>  <Smiles>
CCCc1cc(C(=O)CC)cc(CCC)c1O[C@H](C(=O)O)c1ccc(CC(C)C)cc1

>  <IC50_nM>
220

>  <Assay Description>
In vitro binding affinity for human PPAR gamma

$$$$
CHEMBL257517
Actelion Java MolfileCreator 2.0

  0  0  0  0  0  0              0 V3000
M  V30 BEGIN CTAB
M  V30 COUNTS 42 46 0 0 0
M  V30 BEGIN ATOM
M  V30 1 O 6.687 -2.3319 0.0 0
M  V30 2 C 7.187 -1.4659 0.0 0
M  V30 3 N 8.1529 -1.2071 0.0 0
M  V30 4 C 6.9282 -0.5 0.0 0 CFG=2
M  V30 5 C 9.0189 -1.7071 0.0 0
M  V30 6 C 7.8941 -0.2411 0.0 0 CFG=1
M  V30 7 C 6.0621 0.0 0.0 0
M  V30 8 C 9.0189 -2.7071 0.0 0
M  V30 9 C 9.8849 -1.2071 0.0 0
M  V30 10 C 8.3941 0.6248 0.0 0
M  V30 11 C 5.1961 -0.5 0.0 0
M  V30 12 C 9.8849 -3.2071 0.0 0
M  V30 13 C 10.751 -1.7071 0.0 0
M  V30 14 O 9.3941 0.6248 0.0 0
M  V30 15 O 7.8941 1.4908 0.0 0
M  V30 16 C 4.3301 0.0 0.0 0
M  V30 17 C 5.1961 -1.4999 0.0 0
M  V30 18 C 10.751 -2.7071 0.0 0
M  V30 19 C 3.4641 -0.5 0.0 0
M  V30 20 C 4.3301 -1.9999 0.0 0
M  V30 21 C 11.617 -3.2071 0.0 0
M  V30 22 O 2.598 0.0 0.0 0
M  V30 23 C 3.4641 -1.4999 0.0 0
M  V30 24 C 12.117 -2.341 0.0 0
M  V30 25 C 12.483 -3.7071 0.0 0
M  V30 26 C 11.117 -4.0731 0.0 0
M  V30 27 C 1.732 -0.5 0.0 0
M  V30 28 C 0.866 0.0 0.0 0
M  V30 29 C 0.0 -0.5 0.0 0
M  V30 30 N -0.9135 -0.0932 0.0 0
M  V30 31 C -0.1045 -1.4945 0.0 0
M  V30 32 C -1.5826 -0.8364 0.0 0
M  V30 33 O -1.0826 -1.7024 0.0 0
M  V30 34 C 0.6386 -2.1636 0.0 0
M  V30 35 C -2.5771 -0.7318 0.0 0
M  V30 36 C -2.9839 0.1816 0.0 0
M  V30 37 C -3.1649 -1.5408 0.0 0
M  V30 38 C -3.9784 0.2861 0.0 0
M  V30 39 C -4.1595 -1.4363 0.0 0
M  V30 40 C -4.5662 -0.5228 0.0 0
M  V30 41 O -5.5607 -0.4182 0.0 0
M  V30 42 C -6.1485 -1.2273 0.0 0
M  V30 END ATOM
M  V30 BEGIN BOND
M  V30 1 2 1 2
M  V30 2 1 2 3
M  V30 3 1 2 4
M  V30 4 1 3 5
M  V30 5 1 3 6
M  V30 6 1 4 7 CFG=1
M  V30 7 2 5 8
M  V30 8 1 5 9
M  V30 9 1 6 10 CFG=1
M  V30 10 1 7 11
M  V30 11 1 8 12
M  V30 12 2 9 13
M  V30 13 2 10 14
M  V30 14 1 10 15
M  V30 15 2 11 16
M  V30 16 1 11 17
M  V30 17 2 12 18
M  V30 18 1 16 19
M  V30 19 2 17 20
M  V30 20 1 18 21
M  V30 21 1 19 22
M  V30 22 2 19 23
M  V30 23 1 21 24
M  V30 24 1 21 25
M  V30 25 1 21 26
M  V30 26 1 22 27
M  V30 27 1 27 28
M  V30 28 1 28 29
M  V30 29 1 29 30
M  V30 30 2 29 31
M  V30 31 2 30 32
M  V30 32 1 31 33
M  V30 33 1 31 34
M  V30 34 1 32 35
M  V30 35 2 35 36
M  V30 36 1 35 37
M  V30 37 1 36 38
M  V30 38 2 37 39
M  V30 39 2 38 40
M  V30 40 1 40 41
M  V30 41 1 41 42
M  V30 42 1 4 6
M  V30 43 1 13 18
M  V30 44 1 20 23
M  V30 45 1 32 33
M  V30 46 1 39 40
M  V30 END BOND
M  V30 BEGIN COLLECTION
M  V30 MDLV30/STEABS ATOMS=(2 4 6)
M  V30 END COLLECTION
M  V30 END CTAB
M  END
>  <Molecule ChEMBL ID>
CHEMBL257517

>  <Smiles>
COc1ccc(-c2nc(CCOc3cccc(C[C@@H]4C(=O)N(c5ccc(C(C)(C)C)cc5)[C@@H]4C(=O)O)c3)c(C)o2)cc1

>  <IC50_nM>
220

>  <Assay Description>
Inhibition of PPARgamma

$$$$
CHEMBL3398444
Actelion Java MolfileCreator 2.0

  0  0  0  0  0  0              0 V3000
M  V30 BEGIN CTAB
M  V30 COUNTS 36 40 0 0 0
M  V30 BEGIN ATOM
M  V30 1 O 9.0007 1.1939 0.0 0
M  V30 2 C 8.0496 0.8848 0.0 0
M  V30 3 O 7.3065 1.554 0.0 0
M  V30 4 C 7.8417 -0.0932 0.0 0 CFG=2
M  V30 5 C 6.9282 -0.5 0.0 0 CFG=1
M  V30 6 C 8.5108 -0.8364 0.0 0
M  V30 7 C 7.0327 -1.4945 0.0 0
M  V30 8 C 6.0621 0.0 0.0 0
M  V30 9 N 8.0108 -1.7024 0.0 0
M  V30 10 C 5.1961 -0.5 0.0 0
M  V30 11 C 8.4176 -2.6159 0.0 0
M  V30 12 C 4.3301 0.0 0.0 0
M  V30 13 C 5.1961 -1.4999 0.0 0
M  V30 14 C 7.8298 -3.4249 0.0 0
M  V30 15 C 9.4121 -2.7205 0.0 0
M  V30 16 C 3.4641 -0.5 0.0 0
M  V30 17 C 4.3301 -1.9999 0.0 0
M  V30 18 C 8.2365 -4.3385 0.0 0
M  V30 19 C 9.8188 -3.634 0.0 0
M  V30 20 O 2.598 0.0 0.0 0
M  V30 21 C 3.4641 -1.4999 0.0 0
M  V30 22 C 9.231 -4.443 0.0 0
M  V30 23 C 1.732 -0.5 0.0 0
M  V30 24 C 0.866 0.0 0.0 0
M  V30 25 C 0.0 -0.5 0.0 0
M  V30 26 N -0.9135 -0.0932 0.0 0
M  V30 27 C -0.1045 -1.4945 0.0 0
M  V30 28 C -1.5826 -0.8364 0.0 0
M  V30 29 O -1.0826 -1.7024 0.0 0
M  V30 30 C 0.6386 -2.1636 0.0 0
M  V30 31 C -2.5771 -0.7318 0.0 0
M  V30 32 C -2.9839 0.1816 0.0 0
M  V30 33 C -3.1649 -1.5408 0.0 0
M  V30 34 C -3.9784 0.2861 0.0 0
M  V30 35 C -4.1595 -1.4363 0.0 0
M  V30 36 C -4.5662 -0.5228 0.0 0
M  V30 END ATOM
M  V30 BEGIN BOND
M  V30 1 2 1 2
M  V30 2 1 2 3
M  V30 3 1 4 2 CFG=1
M  V30 4 1 4 5
M  V30 5 1 4 6
M  V30 6 1 5 7
M  V30 7 1 5 8 CFG=1
M  V30 8 1 6 9
M  V30 9 1 8 10
M  V30 10 1 9 11
M  V30 11 2 10 12
M  V30 12 1 10 13
M  V30 13 2 11 14
M  V30 14 1 11 15
M  V30 15 1 12 16
M  V30 16 2 13 17
M  V30 17 1 14 18
M  V30 18 2 15 19
M  V30 19 1 16 20
M  V30 20 2 16 21
M  V30 21 2 18 22
M  V30 22 1 20 23
M  V30 23 1 23 24
M  V30 24 1 24 25
M  V30 25 1 25 26
M  V30 26 2 25 27
M  V30 27 2 26 28
M  V30 28 1 27 29
M  V30 29 1 27 30
M  V30 30 1 28 31
M  V30 31 2 31 32
M  V30 32 1 31 33
M  V30 33 1 32 34
M  V30 34 2 33 35
M  V30 35 2 34 36
M  V30 36 1 7 9
M  V30 37 1 17 21
M  V30 38 1 19 22
M  V30 39 1 28 29
M  V30 40 1 35 36
M  V30 END BOND
M  V30 BEGIN COLLECTION
M  V30 MDLV30/STEABS ATOMS=(2 4 5)
M  V30 END COLLECTION
M  V30 END CTAB
M  END
>  <Molecule ChEMBL ID>
CHEMBL3398444

>  <Smiles>
Cc1oc(-c2ccccc2)nc1CCOc1cccc(C[C@@H]2CN(c3ccccc3)C[C@@H]2C(=O)O)c1

>  <IC50_nM>
220

>  <Assay Description>
Binding affinity to PPARgamma (unknown origin) using fluorescein-tagged dual PPARalpha/gamma activator by homogeneous fluorescence polarization binding assay

$$$$
CHEMBL3699364
Actelion Java MolfileCreator 2.0

  0  0  0  0  0  0              0 V3000
M  V30 BEGIN CTAB
M  V30 COUNTS 41 46 0 0 0
M  V30 BEGIN ATOM
M  V30 1 O 11.8592 -3.5669 0.0 0
M  V30 2 C 10.8811 -3.7748 0.0 0
M  V30 3 O 10.212 -3.0316 0.0 0
M  V30 4 C 10.5721 -4.7258 0.0 0
M  V30 5 C 9.5939 -4.9337 0.0 0
M  V30 6 C 11.2412 -5.469 0.0 0
M  V30 7 C 8.9248 -4.1906 0.0 0
M  V30 8 C 9.2849 -5.8848 0.0 0
M  V30 9 C 10.9322 -6.42 0.0 0
M  V30 10 C 9.2338 -3.2395 0.0 0
M  V30 11 C 7.9466 -4.3985 0.0 0
M  V30 12 C 9.954 -6.6279 0.0 0
M  V30 13 C 8.5647 -2.4964 0.0 0
M  V30 14 C 7.2775 -3.6554 0.0 0
M  V30 15 C 7.5865 -2.7043 0.0 0
M  V30 16 C 6.9174 -1.9612 0.0 0
M  V30 17 N 5.9392 -2.1691 0.0 0
M  V30 18 C 5.1961 -1.4999 0.0 0
M  V30 19 C 5.5325 -3.0826 0.0 0
M  V30 20 C 4.3301 -1.9999 0.0 0
M  V30 21 C 5.1961 -0.4999 0.0 0
M  V30 22 C 4.538 -2.9781 0.0 0
M  V30 23 C 6.0325 -3.9487 0.0 0
M  V30 24 C 3.4641 -1.5 0.0 0
M  V30 25 C 4.3301 0.0 0.0 0
M  V30 26 C 3.8689 -3.7212 0.0 0
M  V30 27 C 3.4641 -0.5 0.0 0
M  V30 28 C 2.598 0.0 0.0 0
M  V30 29 O 2.598 1.0 0.0 0
M  V30 30 N 1.732 -0.5 0.0 0
M  V30 31 C 0.866 0.0 0.0 0 CFG=2
M  V30 32 C 0.866 1.0 0.0 0
M  V30 33 C 0.0 -0.5 0.0 0
M  V30 34 C 0.0 1.4999 0.0 0
M  V30 35 C 1.732 1.5 0.0 0
M  V30 36 C 0.0 2.5 0.0 0
M  V30 37 C 1.732 2.5 0.0 0
M  V30 38 C 0.866 3.0 0.0 0
M  V30 39 C -0.7431 3.1691 0.0 0
M  V30 40 O 0.6581 3.9781 0.0 0
M  V30 41 C -0.3364 4.0826 0.0 0
M  V30 END ATOM
M  V30 BEGIN BOND
M  V30 1 2 1 2
M  V30 2 1 2 3
M  V30 3 1 2 4
M  V30 4 2 4 5
M  V30 5 1 4 6
M  V30 6 1 5 7
M  V30 7 1 5 8
M  V30 8 2 6 9
M  V30 9 2 7 10
M  V30 10 1 7 11
M  V30 11 2 8 12
M  V30 12 1 10 13
M  V30 13 2 11 14
M  V30 14 2 13 15
M  V30 15 1 15 16
M  V30 16 1 16 17
M  V30 17 1 17 18
M  V30 18 1 17 19
M  V30 19 2 18 20
M  V30 20 1 18 21
M  V30 21 2 19 22
M  V30 22 1 19 23
M  V30 23 1 20 24
M  V30 24 2 21 25
M  V30 25 1 22 26
M  V30 26 2 24 27
M  V30 27 1 27 28
M  V30 28 2 28 29
M  V30 29 1 28 30
M  V30 30 1 30 31
M  V30 31 1 31 32
M  V30 32 1 31 33 CFG=1
M  V30 33 2 32 34
M  V30 34 1 32 35
M  V30 35 1 34 36
M  V30 36 2 35 37
M  V30 37 2 36 38
M  V30 38 1 36 39
M  V30 39 1 38 40
M  V30 40 1 39 41
M  V30 41 1 9 12
M  V30 42 1 14 15
M  V30 43 1 20 22
M  V30 44 1 25 27
M  V30 45 1 37 38
M  V30 46 1 40 41
M  V30 END BOND
M  V30 BEGIN COLLECTION
M  V30 MDLV30/STEABS ATOMS=(1 31)
M  V30 END COLLECTION
M  V30 END CTAB
M  END
>  <Molecule ChEMBL ID>
CHEMBL3699364

>  <Smiles>
Cc1c(C)n(Cc2ccc(-c3ccccc3C(=O)O)cc2)c2ccc(C(=O)N[C@@H](C)c3ccc4c(c3)CCO4)cc12

>  <IC50_nM>
223

>  <Assay Description>
Lanthascreen Competitive Binding Assay: The assay was performed according to manufacturer protocol. A mixture of nM GST-PPARG-LBD, 5 nM Tb-GST-antibody, 5 nM Fluormone Pan-PPAR Green, and serial dilutions of the experimental compound, beginning at 10 ׬M downwards, was added to wells of black 384-well low-volume plates (Greiner) to a total volume of 18 ׬L. All dilutions were made in TR-FRET assay buffer C. DMSO at 2% final concentration was used as a no-ligand control. Experiment was performed in triplicate, and incubated for 2 hours in the dark prior to assay read in Perkin Elmer ViewLux ultra HTS microplate reader. FRET signal was measured by excitation at 340 nm and emission at 520 nm for fluorescein and 490 nm for terbium. Fold change over DMSO was calculated using GraphPad Prism Software (La Jolla, Calif.) by calculating 520 nm/490 nm ratio. Graphs were plotted as fold change of FRET signal for compound treatment over DMSO-only control.

$$$$
CHEMBL384203
Actelion Java MolfileCreator 2.0

  0  0  0  0  0  0              0 V3000
M  V30 BEGIN CTAB
M  V30 COUNTS 35 38 0 0 0
M  V30 BEGIN ATOM
M  V30 1 F 13.9704 1.5854 0.0 0
M  V30 2 C 13.5637 0.6719 0.0 0
M  V30 3 F 14.4772 0.2651 0.0 0
M  V30 4 F 13.157 -0.2416 0.0 0
M  V30 5 C 12.6502 1.0786 0.0 0
M  V30 6 C 12.5456 2.0731 0.0 0
M  V30 7 C 11.8411 0.4908 0.0 0
M  V30 8 C 11.6321 2.4799 0.0 0
M  V30 9 C 10.9276 0.8975 0.0 0
M  V30 10 C 10.8231 1.8921 0.0 0
M  V30 11 C 9.9095 2.2988 0.0 0
M  V30 12 O 9.7016 3.277 0.0 0
M  V30 13 N 9.0435 1.7988 0.0 0
M  V30 14 C 8.7071 3.3815 0.0 0
M  V30 15 C 8.3003 2.4679 0.0 0
M  V30 16 C 8.2071 4.2475 0.0 0
M  V30 17 C 7.3222 2.26 0.0 0
M  V30 18 N 7.0132 1.309 0.0 0
M  V30 19 C 6.0621 0.9999 0.0 0
M  V30 20 C 7.601 0.5 0.0 0
M  V30 21 C 6.0621 0.0 0.0 0
M  V30 22 C 5.1961 1.4999 0.0 0
M  V30 23 C 7.0132 -0.309 0.0 0
M  V30 24 C 5.1961 -0.5 0.0 0
M  V30 25 C 4.3301 0.9999 0.0 0
M  V30 26 C 7.3222 -1.26 0.0 0
M  V30 27 C 4.3301 0.0 0.0 0
M  V30 28 C 3.4641 -0.5 0.0 0
M  V30 29 C 2.598 0.0 0.0 0 CFG=2
M  V30 30 O 1.732 -0.5 0.0 0
M  V30 31 C 2.598 1.0 0.0 0
M  V30 32 C 0.866 0.0 0.0 0
M  V30 33 O 3.4641 1.4999 0.0 0
M  V30 34 O 1.732 1.5 0.0 0
M  V30 35 C 0.0 -0.5 0.0 0
M  V30 END ATOM
M  V30 BEGIN BOND
M  V30 1 1 1 2
M  V30 2 1 2 3
M  V30 3 1 2 4
M  V30 4 1 2 5
M  V30 5 2 5 6
M  V30 6 1 5 7
M  V30 7 1 6 8
M  V30 8 2 7 9
M  V30 9 2 8 10
M  V30 10 1 10 11
M  V30 11 1 11 12
M  V30 12 2 11 13
M  V30 13 1 12 14
M  V30 14 1 13 15
M  V30 15 1 14 16
M  V30 16 1 15 17
M  V30 17 1 17 18
M  V30 18 1 18 19
M  V30 19 1 18 20
M  V30 20 2 19 21
M  V30 21 1 19 22
M  V30 22 2 20 23
M  V30 23 1 21 24
M  V30 24 2 22 25
M  V30 25 1 23 26
M  V30 26 2 24 27
M  V30 27 1 27 28
M  V30 28 1 28 29
M  V30 29 1 29 30 CFG=3
M  V30 30 1 29 31
M  V30 31 1 30 32
M  V30 32 2 31 33
M  V30 33 1 31 34
M  V30 34 1 32 35
M  V30 35 1 9 10
M  V30 36 2 14 15
M  V30 37 1 21 23
M  V30 38 1 25 27
M  V30 END BOND
M  V30 BEGIN COLLECTION
M  V30 MDLV30/STERAC1 ATOMS=(1 29)
M  V30 END COLLECTION
M  V30 END CTAB
M  END
>  <Molecule ChEMBL ID>
CHEMBL384203

>  <Smiles>
CCOC(Cc1ccc2c(c1)c(C)cn2Cc1nc(-c2ccc(C(F)(F)F)cc2)oc1C)C(=O)O

>  <IC50_nM>
223

>  <Assay Description>
Binding affinity to PPARgamma by radio ligand binding assay

$$$$
CHEMBL1783043
Actelion Java MolfileCreator 2.0

  0  0  0  0  0  0              0 V3000
M  V30 BEGIN CTAB
M  V30 COUNTS 40 44 0 0 0
M  V30 BEGIN ATOM
M  V30 1 S 8.7077 -0.4067 0.0 0
M  V30 2 C 9.3769 0.3364 0.0 0
M  V30 3 C 7.7942 0.0 0.0 0 CFG=1
M  V30 4 O 10.3714 0.2318 0.0 0
M  V30 5 N 8.8769 1.2024 0.0 0
M  V30 6 C 6.9282 -0.5 0.0 0
M  V30 7 C 7.8987 0.9945 0.0 0
M  V30 8 C 6.0621 0.0 0.0 0
M  V30 9 C 6.9282 -1.5 0.0 0
M  V30 10 O 7.1556 1.6636 0.0 0
M  V30 11 C 5.1961 -0.5 0.0 0
M  V30 12 C 6.0621 -2.0 0.0 0
M  V30 13 O 4.3301 0.0 0.0 0
M  V30 14 C 5.1961 -1.5 0.0 0
M  V30 15 C 3.4641 -0.5 0.0 0
M  V30 16 C 2.598 0.0 0.0 0
M  V30 17 C 1.732 -0.5 0.0 0
M  V30 18 O 0.866 0.0 0.0 0
M  V30 19 C 0.0 -0.5 0.0 0
M  V30 20 C -0.866 0.0 0.0 0
M  V30 21 C 0.0 -1.4999 0.0 0
M  V30 22 C -1.732 -0.4999 0.0 0
M  V30 23 C -0.866 1.0 0.0 0
M  V30 24 C -0.866 -1.9999 0.0 0
M  V30 25 C -1.732 -1.4999 0.0 0
M  V30 26 C 0.0 1.5 0.0 0
M  V30 27 O -2.598 -1.9999 0.0 0
M  V30 28 C 0.0 2.5 0.0 0
M  V30 29 C -2.598 -2.9999 0.0 0
M  V30 30 C -3.4641 -3.4999 0.0 0
M  V30 31 C -1.732 -3.4999 0.0 0
M  V30 32 C -3.4641 -4.4999 0.0 0
M  V30 33 C -1.732 -4.4999 0.0 0
M  V30 34 C -2.598 -4.9999 0.0 0
M  V30 35 C -2.598 -5.9999 0.0 0
M  V30 36 C -3.4641 -6.4999 0.0 0
M  V30 37 C -1.732 -6.4999 0.0 0
M  V30 38 C -3.4641 -7.4999 0.0 0
M  V30 39 C -1.732 -7.4999 0.0 0
M  V30 40 C -2.598 -7.9999 0.0 0
M  V30 END ATOM
M  V30 BEGIN BOND
M  V30 1 1 1 2
M  V30 2 1 1 3
M  V30 3 2 2 4
M  V30 4 1 2 5
M  V30 5 1 3 6 CFG=1
M  V30 6 1 3 7
M  V30 7 2 6 8
M  V30 8 1 6 9
M  V30 9 2 7 10
M  V30 10 1 8 11
M  V30 11 2 9 12
M  V30 12 1 11 13
M  V30 13 2 11 14
M  V30 14 1 13 15
M  V30 15 1 15 16
M  V30 16 1 16 17
M  V30 17 1 17 18
M  V30 18 1 18 19
M  V30 19 2 19 20
M  V30 20 1 19 21
M  V30 21 1 20 22
M  V30 22 1 20 23
M  V30 23 2 21 24
M  V30 24 2 22 25
M  V30 25 1 23 26
M  V30 26 1 25 27
M  V30 27 1 26 28
M  V30 28 1 27 29
M  V30 29 2 29 30
M  V30 30 1 29 31
M  V30 31 1 30 32
M  V30 32 2 31 33
M  V30 33 2 32 34
M  V30 34 1 34 35
M  V30 35 2 35 36
M  V30 36 1 35 37
M  V30 37 1 36 38
M  V30 38 2 37 39
M  V30 39 2 38 40
M  V30 40 1 5 7
M  V30 41 1 12 14
M  V30 42 1 24 25
M  V30 43 1 33 34
M  V30 44 1 39 40
M  V30 END BOND
M  V30 BEGIN COLLECTION
M  V30 MDLV30/STEABS ATOMS=(1 3)
M  V30 END COLLECTION
M  V30 END CTAB
M  END
>  <Molecule ChEMBL ID>
CHEMBL1783043

>  <Smiles>
CCCc1cc(Oc2ccc(-c3ccccc3)cc2)ccc1OCCCOc1cccc([C@@H]2SC(=O)NC2=O)c1

>  <IC50_nM>
226

>  <Assay Description>
Displacement of radio-labeled full agonist from PPARgamma receptor

$$$$
CHEMBL96758
Actelion Java MolfileCreator 2.0

  0  0  0  0  0  0              0 V3000
M  V30 BEGIN CTAB
M  V30 COUNTS 40 44 0 0 0
M  V30 BEGIN ATOM
M  V30 1 S 8.7077 -0.4067 0.0 0
M  V30 2 C 9.3769 0.3364 0.0 0
M  V30 3 C 7.7942 0.0 0.0 0 CFG=2
M  V30 4 O 10.3714 0.2318 0.0 0
M  V30 5 N 8.8769 1.2024 0.0 0
M  V30 6 C 6.9282 -0.5 0.0 0
M  V30 7 C 7.8987 0.9945 0.0 0
M  V30 8 C 6.0621 0.0 0.0 0
M  V30 9 C 6.9282 -1.5 0.0 0
M  V30 10 O 7.1556 1.6636 0.0 0
M  V30 11 C 5.1961 -0.5 0.0 0
M  V30 12 C 6.0621 -2.0 0.0 0
M  V30 13 O 4.3301 0.0 0.0 0
M  V30 14 C 5.1961 -1.5 0.0 0
M  V30 15 C 3.4641 -0.5 0.0 0
M  V30 16 C 2.598 0.0 0.0 0
M  V30 17 C 1.732 -0.5 0.0 0
M  V30 18 O 0.866 0.0 0.0 0
M  V30 19 C 0.0 -0.5 0.0 0
M  V30 20 C -0.866 0.0 0.0 0
M  V30 21 C 0.0 -1.4999 0.0 0
M  V30 22 C -1.732 -0.4999 0.0 0
M  V30 23 C -0.866 1.0 0.0 0
M  V30 24 C -0.866 -1.9999 0.0 0
M  V30 25 C -1.732 -1.4999 0.0 0
M  V30 26 C 0.0 1.5 0.0 0
M  V30 27 O -2.598 -1.9999 0.0 0
M  V30 28 C 0.0 2.5 0.0 0
M  V30 29 C -2.598 -2.9999 0.0 0
M  V30 30 C -3.4641 -3.4999 0.0 0
M  V30 31 C -1.732 -3.4999 0.0 0
M  V30 32 C -3.4641 -4.4999 0.0 0
M  V30 33 C -1.732 -4.4999 0.0 0
M  V30 34 C -2.598 -4.9999 0.0 0
M  V30 35 C -2.598 -5.9999 0.0 0
M  V30 36 C -3.4641 -6.4999 0.0 0
M  V30 37 C -1.732 -6.4999 0.0 0
M  V30 38 C -3.4641 -7.4999 0.0 0
M  V30 39 C -1.732 -7.4999 0.0 0
M  V30 40 C -2.598 -7.9999 0.0 0
M  V30 END ATOM
M  V30 BEGIN BOND
M  V30 1 1 1 2
M  V30 2 1 1 3
M  V30 3 2 2 4
M  V30 4 1 2 5
M  V30 5 1 3 6 CFG=3
M  V30 6 1 3 7
M  V30 7 2 6 8
M  V30 8 1 6 9
M  V30 9 2 7 10
M  V30 10 1 8 11
M  V30 11 2 9 12
M  V30 12 1 11 13
M  V30 13 2 11 14
M  V30 14 1 13 15
M  V30 15 1 15 16
M  V30 16 1 16 17
M  V30 17 1 17 18
M  V30 18 1 18 19
M  V30 19 2 19 20
M  V30 20 1 19 21
M  V30 21 1 20 22
M  V30 22 1 20 23
M  V30 23 2 21 24
M  V30 24 2 22 25
M  V30 25 1 23 26
M  V30 26 1 25 27
M  V30 27 1 26 28
M  V30 28 1 27 29
M  V30 29 2 29 30
M  V30 30 1 29 31
M  V30 31 1 30 32
M  V30 32 2 31 33
M  V30 33 2 32 34
M  V30 34 1 34 35
M  V30 35 2 35 36
M  V30 36 1 35 37
M  V30 37 1 36 38
M  V30 38 2 37 39
M  V30 39 2 38 40
M  V30 40 1 5 7
M  V30 41 1 12 14
M  V30 42 1 24 25
M  V30 43 1 33 34
M  V30 44 1 39 40
M  V30 END BOND
M  V30 BEGIN COLLECTION
M  V30 MDLV30/STERAC1 ATOMS=(1 3)
M  V30 END COLLECTION
M  V30 END CTAB
M  END
>  <Molecule ChEMBL ID>
CHEMBL96758

>  <Smiles>
CCCc1cc(Oc2ccc(-c3ccccc3)cc2)ccc1OCCCOc1cccc(C2SC(=O)NC2=O)c1

>  <IC50_nM>
226

>  <Assay Description>
In vitro binding affinity against human peroxisome proliferator activated receptor gamma

$$$$
CHEMBL247925
Actelion Java MolfileCreator 2.0

  0  0  0  0  0  0              0 V3000
M  V30 BEGIN CTAB
M  V30 COUNTS 41 45 0 0 0
M  V30 BEGIN ATOM
M  V30 1 O 5.1961 2.25 0.0 0
M  V30 2 C 3.8971 1.5 0.0 0
M  V30 3 O 2.598 2.25 0.0 0
M  V30 4 C 3.8971 0.0 0.0 0
M  V30 5 N 2.598 -0.75 0.0 0
M  V30 6 C 2.598 -2.25 0.0 0
M  V30 7 C 1.299 0.0 0.0 0
M  V30 8 C 3.8971 -3.0 0.0 0
M  V30 9 C 0.0 -0.75 0.0 0
M  V30 10 C 3.8971 -4.5 0.0 0
M  V30 11 C 5.1961 -2.25 0.0 0
M  V30 12 C -1.299 0.0 0.0 0
M  V30 13 C 0.0 -2.2499 0.0 0
M  V30 14 C 5.1961 -5.25 0.0 0
M  V30 15 C 6.4951 -3.0 0.0 0
M  V30 16 C -2.598 -0.7499 0.0 0
M  V30 17 C -1.299 -2.9999 0.0 0
M  V30 18 C 6.4951 -4.5 0.0 0
M  V30 19 C -2.598 -2.2499 0.0 0
M  V30 20 O 7.7942 -5.25 0.0 0
M  V30 21 O -3.8971 -2.9999 0.0 0
M  V30 22 C 9.0932 -4.5 0.0 0
M  V30 23 C -3.8971 -4.4999 0.0 0
M  V30 24 C 10.3923 -5.25 0.0 0
M  V30 25 C 9.0932 -3.0 0.0 0
M  V30 26 C -5.1961 -5.2499 0.0 0
M  V30 27 C 11.6913 -4.5 0.0 0
M  V30 28 C 10.3923 -2.25 0.0 0
M  V30 29 C -5.1961 -6.7499 0.0 0
M  V30 30 C 11.6913 -3.0 0.0 0
M  V30 31 N -6.4096 -7.6316 0.0 0
M  V30 32 C -3.9826 -7.6316 0.0 0
M  V30 33 C -5.9461 -9.0582 0.0 0
M  V30 34 O -4.4461 -9.0582 0.0 0
M  V30 35 C -2.556 -7.1681 0.0 0
M  V30 36 C -6.8278 -10.2717 0.0 0
M  V30 37 C -8.3196 -10.1149 0.0 0
M  V30 38 C -6.2177 -11.6421 0.0 0
M  V30 39 C -9.2012 -11.3285 0.0 0
M  V30 40 C -7.0994 -12.8556 0.0 0
M  V30 41 C -8.5911 -12.6988 0.0 0
M  V30 END ATOM
M  V30 BEGIN BOND
M  V30 1 2 1 2
M  V30 2 1 2 3
M  V30 3 1 2 4
M  V30 4 1 4 5
M  V30 5 1 5 6
M  V30 6 1 5 7
M  V30 7 1 6 8
M  V30 8 1 7 9
M  V30 9 2 8 10
M  V30 10 1 8 11
M  V30 11 2 9 12
M  V30 12 1 9 13
M  V30 13 1 10 14
M  V30 14 2 11 15
M  V30 15 1 12 16
M  V30 16 2 13 17
M  V30 17 2 14 18
M  V30 18 2 16 19
M  V30 19 1 18 20
M  V30 20 1 19 21
M  V30 21 1 20 22
M  V30 22 1 21 23
M  V30 23 2 22 24
M  V30 24 1 22 25
M  V30 25 1 23 26
M  V30 26 1 24 27
M  V30 27 2 25 28
M  V30 28 1 26 29
M  V30 29 2 27 30
M  V30 30 1 29 31
M  V30 31 2 29 32
M  V30 32 2 31 33
M  V30 33 1 32 34
M  V30 34 1 32 35
M  V30 35 1 33 36
M  V30 36 2 36 37
M  V30 37 1 36 38
M  V30 38 1 37 39
M  V30 39 2 38 40
M  V30 40 2 39 41
M  V30 41 1 15 18
M  V30 42 1 17 19
M  V30 43 1 28 30
M  V30 44 1 33 34
M  V30 45 1 40 41
M  V30 END BOND
M  V30 END CTAB
M  END
>  <Molecule ChEMBL ID>
CHEMBL247925

>  <Smiles>
Cc1oc(-c2ccccc2)nc1CCOc1ccc(CN(CC(=O)O)Cc2ccc(Oc3ccccc3)cc2)cc1

>  <IC50_nM>
227

>  <Assay Description>
Displacement of fluorescein labeled ligand from PPARgamma receptor by fluorescence polarization assay

$$$$
CHEMBL272962
Actelion Java MolfileCreator 2.0

  0  0  0  0  0  0              0 V3000
M  V30 BEGIN CTAB
M  V30 COUNTS 38 42 0 0 0
M  V30 BEGIN ATOM
M  V30 1 O 6.687 -2.3319 0.0 0
M  V30 2 C 7.187 -1.4659 0.0 0
M  V30 3 N 8.1529 -1.2071 0.0 0
M  V30 4 C 6.9282 -0.5 0.0 0
M  V30 5 C 9.0189 -1.7071 0.0 0
M  V30 6 C 7.8941 -0.2411 0.0 0
M  V30 7 C 6.0621 0.0 0.0 0
M  V30 8 C 9.0189 -2.7071 0.0 0
M  V30 9 C 9.8849 -1.2071 0.0 0
M  V30 10 C 8.3941 0.6248 0.0 0
M  V30 11 C 5.1961 -0.5 0.0 0
M  V30 12 N 9.8849 -3.2071 0.0 0
M  V30 13 C 10.751 -1.7071 0.0 0
M  V30 14 O 9.3941 0.6248 0.0 0
M  V30 15 O 7.8941 1.4908 0.0 0
M  V30 16 C 4.3301 0.0 0.0 0
M  V30 17 C 5.1961 -1.4999 0.0 0
M  V30 18 C 10.751 -2.7071 0.0 0
M  V30 19 C 3.4641 -0.5 0.0 0
M  V30 20 C 4.3301 -1.9999 0.0 0
M  V30 21 O 11.617 -3.2071 0.0 0
M  V30 22 O 2.598 0.0 0.0 0
M  V30 23 C 3.4641 -1.4999 0.0 0
M  V30 24 C 12.483 -2.7071 0.0 0
M  V30 25 C 1.732 -0.5 0.0 0
M  V30 26 C 0.866 0.0 0.0 0
M  V30 27 C 0.0 -0.5 0.0 0
M  V30 28 N -0.9135 -0.0932 0.0 0
M  V30 29 C -0.1045 -1.4945 0.0 0
M  V30 30 C -1.5826 -0.8364 0.0 0
M  V30 31 O -1.0826 -1.7024 0.0 0
M  V30 32 C 0.6386 -2.1636 0.0 0
M  V30 33 C -2.5771 -0.7318 0.0 0
M  V30 34 C -2.9839 0.1816 0.0 0
M  V30 35 C -3.1649 -1.5408 0.0 0
M  V30 36 C -3.9784 0.2861 0.0 0
M  V30 37 C -4.1595 -1.4363 0.0 0
M  V30 38 C -4.5662 -0.5228 0.0 0
M  V30 END ATOM
M  V30 BEGIN BOND
M  V30 1 2 1 2
M  V30 2 1 2 3
M  V30 3 1 2 4
M  V30 4 1 3 5
M  V30 5 1 3 6
M  V30 6 1 4 7
M  V30 7 2 5 8
M  V30 8 1 5 9
M  V30 9 1 6 10
M  V30 10 1 7 11
M  V30 11 1 8 12
M  V30 12 2 9 13
M  V30 13 2 10 14
M  V30 14 1 10 15
M  V30 15 2 11 16
M  V30 16 1 11 17
M  V30 17 2 12 18
M  V30 18 1 16 19
M  V30 19 2 17 20
M  V30 20 1 18 21
M  V30 21 1 19 22
M  V30 22 2 19 23
M  V30 23 1 21 24
M  V30 24 1 22 25
M  V30 25 1 25 26
M  V30 26 1 26 27
M  V30 27 1 27 28
M  V30 28 2 27 29
M  V30 29 2 28 30
M  V30 30 1 29 31
M  V30 31 1 29 32
M  V30 32 1 30 33
M  V30 33 2 33 34
M  V30 34 1 33 35
M  V30 35 1 34 36
M  V30 36 2 35 37
M  V30 37 2 36 38
M  V30 38 1 4 6
M  V30 39 1 13 18
M  V30 40 1 20 23
M  V30 41 1 30 31
M  V30 42 1 37 38
M  V30 END BOND
M  V30 END CTAB
M  END
>  <Molecule ChEMBL ID>
CHEMBL272962

>  <Smiles>
COc1ccc(N2C(=O)C(Cc3cccc(OCCc4nc(-c5ccccc5)oc4C)c3)C2C(=O)O)cn1

>  <IC50_nM>
230

>  <Assay Description>
Inhibition of PPARgamma

$$$$
CHEMBL246272
Actelion Java MolfileCreator 2.0

  0  0  0  0  0  0              0 V3000
M  V30 BEGIN CTAB
M  V30 COUNTS 41 45 0 0 0
M  V30 BEGIN ATOM
M  V30 1 O 0.0 -6.75 0.0 0
M  V30 2 C 0.0 -5.25 0.0 0
M  V30 3 O -1.299 -4.4999 0.0 0
M  V30 4 C 1.299 -4.5 0.0 0
M  V30 5 N 1.299 -3.0 0.0 0
M  V30 6 C 2.598 -2.25 0.0 0
M  V30 7 C 0.0 -2.25 0.0 0
M  V30 8 C 3.8971 -3.0 0.0 0
M  V30 9 C 0.0 -0.75 0.0 0
M  V30 10 C 3.8971 -4.4999 0.0 0
M  V30 11 C 5.1961 -2.2499 0.0 0
M  V30 12 C -1.299 0.0 0.0 0
M  V30 13 C 1.299 0.0 0.0 0
M  V30 14 C 5.1961 -5.2499 0.0 0
M  V30 15 C 6.4951 -2.9999 0.0 0
M  V30 16 C -1.299 1.4999 0.0 0
M  V30 17 C 1.299 1.5 0.0 0
M  V30 18 O 5.1961 -6.75 0.0 0
M  V30 19 C 6.4951 -4.5 0.0 0
M  V30 20 C 0.0 2.2499 0.0 0
M  V30 21 C 6.4951 -7.4999 0.0 0
M  V30 22 O 0.0 3.75 0.0 0
M  V30 23 C 6.4951 -8.9999 0.0 0
M  V30 24 C 1.299 4.5 0.0 0
M  V30 25 C 7.7942 -9.7499 0.0 0
M  V30 26 C 1.299 6.0 0.0 0
M  V30 27 C 2.598 3.75 0.0 0
M  V30 28 N 7.951 -11.2417 0.0 0
M  V30 29 C 9.1645 -9.1398 0.0 0
M  V30 30 C 2.598 6.75 0.0 0
M  V30 31 C 3.8971 4.5 0.0 0
M  V30 32 C 9.4182 -11.5536 0.0 0
M  V30 33 O 10.1682 -10.2546 0.0 0
M  V30 34 C 9.4764 -7.6726 0.0 0
M  V30 35 C 3.8971 6.0 0.0 0
M  V30 36 C 10.0283 -12.9239 0.0 0
M  V30 37 C 9.1466 -14.1374 0.0 0
M  V30 38 C 11.5201 -13.0807 0.0 0
M  V30 39 C 9.7567 -15.5078 0.0 0
M  V30 40 C 12.1302 -14.451 0.0 0
M  V30 41 C 11.2485 -15.6646 0.0 0
M  V30 END ATOM
M  V30 BEGIN BOND
M  V30 1 2 1 2
M  V30 2 1 2 3
M  V30 3 1 2 4
M  V30 4 1 4 5
M  V30 5 1 5 6
M  V30 6 1 5 7
M  V30 7 1 6 8
M  V30 8 1 7 9
M  V30 9 2 8 10
M  V30 10 1 8 11
M  V30 11 2 9 12
M  V30 12 1 9 13
M  V30 13 1 10 14
M  V30 14 2 11 15
M  V30 15 1 12 16
M  V30 16 2 13 17
M  V30 17 1 14 18
M  V30 18 2 14 19
M  V30 19 2 16 20
M  V30 20 1 18 21
M  V30 21 1 20 22
M  V30 22 1 21 23
M  V30 23 1 22 24
M  V30 24 1 23 25
M  V30 25 2 24 26
M  V30 26 1 24 27
M  V30 27 1 25 28
M  V30 28 2 25 29
M  V30 29 1 26 30
M  V30 30 2 27 31
M  V30 31 2 28 32
M  V30 32 1 29 33
M  V30 33 1 29 34
M  V30 34 2 30 35
M  V30 35 1 32 36
M  V30 36 2 36 37
M  V30 37 1 36 38
M  V30 38 1 37 39
M  V30 39 2 38 40
M  V30 40 2 39 41
M  V30 41 1 15 19
M  V30 42 1 17 20
M  V30 43 1 31 35
M  V30 44 1 32 33
M  V30 45 1 40 41
M  V30 END BOND
M  V30 END CTAB
M  END
>  <Molecule ChEMBL ID>
CHEMBL246272

>  <Smiles>
Cc1oc(-c2ccccc2)nc1CCOc1cccc(CN(CC(=O)O)Cc2ccc(Oc3ccccc3)cc2)c1

>  <IC50_nM>
230

>  <Assay Description>
Displacement of fluorescein labeled ligand from PPARgamma receptor by fluorescence polarization assay

$$$$
CHEMBL3699363
Actelion Java MolfileCreator 2.0

  0  0  0  0  0  0              0 V3000
M  V30 BEGIN CTAB
M  V30 COUNTS 42 46 0 0 0
M  V30 BEGIN ATOM
M  V30 1 F 6.5621 -1.1339 0.0 0
M  V30 2 C 6.0621 -1.9999 0.0 0
M  V30 3 F 6.9282 -2.5 0.0 0
M  V30 4 F 5.5621 -2.866 0.0 0
M  V30 5 C 5.1961 -1.4999 0.0 0
M  V30 6 N 5.1961 -0.5 0.0 0
M  V30 7 C 4.3301 -1.9999 0.0 0
M  V30 8 C 4.3301 0.0 0.0 0
M  V30 9 C 3.4641 -1.5 0.0 0
M  V30 10 C 3.4641 -0.5 0.0 0
M  V30 11 C 2.598 0.0 0.0 0 CFG=1
M  V30 12 N 1.732 -0.5 0.0 0
M  V30 13 C 2.598 1.0 0.0 0
M  V30 14 C 0.866 0.0 0.0 0
M  V30 15 O 0.866 1.0 0.0 0
M  V30 16 C 0.0 -0.5 0.0 0
M  V30 17 C 0.0 -1.4999 0.0 0
M  V30 18 C -0.866 0.0 0.0 0
M  V30 19 C -0.866 -1.9999 0.0 0
M  V30 20 C -1.732 -0.4999 0.0 0
M  V30 21 C -1.732 -1.4999 0.0 0
M  V30 22 C -1.0739 -2.9781 0.0 0
M  V30 23 N -2.4751 -2.1691 0.0 0
M  V30 24 C -2.0684 -3.0826 0.0 0
M  V30 25 C -0.4048 -3.7212 0.0 0
M  V30 26 C -3.4533 -1.9612 0.0 0
M  V30 27 C -2.5684 -3.9487 0.0 0
M  V30 28 C -4.1224 -2.7043 0.0 0
M  V30 29 C -5.1006 -2.4964 0.0 0
M  V30 30 C -3.8134 -3.6554 0.0 0
M  V30 31 C -5.7697 -3.2395 0.0 0
M  V30 32 C -4.4825 -4.3985 0.0 0
M  V30 33 C -5.4607 -4.1906 0.0 0
M  V30 34 C -6.1298 -4.9337 0.0 0
M  V30 35 C -7.108 -4.7258 0.0 0
M  V30 36 C -5.8208 -5.8848 0.0 0
M  V30 37 C -7.417 -3.7748 0.0 0
M  V30 38 C -7.7771 -5.469 0.0 0
M  V30 39 C -6.4899 -6.6279 0.0 0
M  V30 40 O -6.7478 -3.0316 0.0 0
M  V30 41 O -8.3951 -3.5669 0.0 0
M  V30 42 C -7.4681 -6.42 0.0 0
M  V30 END ATOM
M  V30 BEGIN BOND
M  V30 1 1 1 2
M  V30 2 1 2 3
M  V30 3 1 2 4
M  V30 4 1 2 5
M  V30 5 2 5 6
M  V30 6 1 5 7
M  V30 7 1 6 8
M  V30 8 2 7 9
M  V30 9 2 8 10
M  V30 10 1 10 11
M  V30 11 1 11 12
M  V30 12 1 11 13 CFG=1
M  V30 13 1 12 14
M  V30 14 2 14 15
M  V30 15 1 14 16
M  V30 16 2 16 17
M  V30 17 1 16 18
M  V30 18 1 17 19
M  V30 19 2 18 20
M  V30 20 2 19 21
M  V30 21 1 19 22
M  V30 22 1 21 23
M  V30 23 2 22 24
M  V30 24 1 22 25
M  V30 25 1 23 26
M  V30 26 1 24 27
M  V30 27 1 26 28
M  V30 28 2 28 29
M  V30 29 1 28 30
M  V30 30 1 29 31
M  V30 31 2 30 32
M  V30 32 2 31 33
M  V30 33 1 33 34
M  V30 34 2 34 35
M  V30 35 1 34 36
M  V30 36 1 35 37
M  V30 37 1 35 38
M  V30 38 2 36 39
M  V30 39 2 37 40
M  V30 40 1 37 41
M  V30 41 2 38 42
M  V30 42 1 9 10
M  V30 43 1 20 21
M  V30 44 1 23 24
M  V30 45 1 32 33
M  V30 46 1 39 42
M  V30 END BOND
M  V30 BEGIN COLLECTION
M  V30 MDLV30/STEABS ATOMS=(1 11)
M  V30 END COLLECTION
M  V30 END CTAB
M  END
>  <Molecule ChEMBL ID>
CHEMBL3699363

>  <Smiles>
Cc1c(C)n(Cc2ccc(-c3ccccc3C(=O)O)cc2)c2ccc(C(=O)N[C@@H](C)c3ccc(C(F)(F)F)nc3)cc12

>  <IC50_nM>
230

>  <Assay Description>
Lanthascreen Competitive Binding Assay: The assay was performed according to manufacturer protocol. A mixture of nM GST-PPARG-LBD, 5 nM Tb-GST-antibody, 5 nM Fluormone Pan-PPAR Green, and serial dilutions of the experimental compound, beginning at 10 ׬M downwards, was added to wells of black 384-well low-volume plates (Greiner) to a total volume of 18 ׬L. All dilutions were made in TR-FRET assay buffer C. DMSO at 2% final concentration was used as a no-ligand control. Experiment was performed in triplicate, and incubated for 2 hours in the dark prior to assay read in Perkin Elmer ViewLux ultra HTS microplate reader. FRET signal was measured by excitation at 340 nm and emission at 520 nm for fluorescein and 490 nm for terbium. Fold change over DMSO was calculated using GraphPad Prism Software (La Jolla, Calif.) by calculating 520 nm/490 nm ratio. Graphs were plotted as fold change of FRET signal for compound treatment over DMSO-only control.

$$$$
CHEMBL3695763
Actelion Java MolfileCreator 2.0

  0  0  0  0  0  0              0 V3000
M  V30 BEGIN CTAB
M  V30 COUNTS 41 45 0 0 0
M  V30 BEGIN ATOM
M  V30 1 S 6.0621 0.0 0.0 0
M  V30 2 O 6.5621 -0.866 0.0 0
M  V30 3 O 5.5621 0.866 0.0 0
M  V30 4 C 5.1961 -0.5 0.0 0
M  V30 5 C 6.9282 0.4999 0.0 0
M  V30 6 C 4.3301 0.0 0.0 0
M  V30 7 C 5.1961 -1.4999 0.0 0
M  V30 8 C 3.4641 -0.5 0.0 0
M  V30 9 C 4.3301 -1.9999 0.0 0
M  V30 10 C 3.4641 -1.4999 0.0 0
M  V30 11 C 2.598 0.0 0.0 0
M  V30 12 N 1.732 -0.5 0.0 0
M  V30 13 C 0.866 0.0 0.0 0
M  V30 14 O 0.866 1.0 0.0 0
M  V30 15 C 0.0 -0.5 0.0 0
M  V30 16 C 0.0 -1.4999 0.0 0
M  V30 17 C -0.866 0.0 0.0 0
M  V30 18 C -0.866 -1.9999 0.0 0
M  V30 19 C -1.732 -0.4999 0.0 0
M  V30 20 C -1.732 -1.4999 0.0 0
M  V30 21 C -1.0739 -2.9781 0.0 0
M  V30 22 N -2.4751 -2.1691 0.0 0
M  V30 23 C -2.0684 -3.0826 0.0 0
M  V30 24 C -0.4048 -3.7212 0.0 0
M  V30 25 C -3.4533 -1.9612 0.0 0
M  V30 26 C -2.5684 -3.9487 0.0 0
M  V30 27 C -4.1224 -2.7043 0.0 0
M  V30 28 C -5.1006 -2.4964 0.0 0
M  V30 29 C -3.8134 -3.6554 0.0 0
M  V30 30 C -5.7697 -3.2395 0.0 0
M  V30 31 C -4.4825 -4.3985 0.0 0
M  V30 32 C -5.4607 -4.1906 0.0 0
M  V30 33 C -6.1298 -4.9337 0.0 0
M  V30 34 C -7.108 -4.7258 0.0 0
M  V30 35 C -5.8208 -5.8848 0.0 0
M  V30 36 C -7.417 -3.7748 0.0 0
M  V30 37 C -7.7771 -5.469 0.0 0
M  V30 38 C -6.4899 -6.6279 0.0 0
M  V30 39 O -6.7478 -3.0316 0.0 0
M  V30 40 O -8.3951 -3.5669 0.0 0
M  V30 41 C -7.4681 -6.42 0.0 0
M  V30 END ATOM
M  V30 BEGIN BOND
M  V30 1 2 1 2
M  V30 2 2 1 3
M  V30 3 1 1 4
M  V30 4 1 1 5
M  V30 5 2 4 6
M  V30 6 1 4 7
M  V30 7 1 6 8
M  V30 8 2 7 9
M  V30 9 2 8 10
M  V30 10 1 8 11
M  V30 11 1 11 12
M  V30 12 1 12 13
M  V30 13 2 13 14
M  V30 14 1 13 15
M  V30 15 2 15 16
M  V30 16 1 15 17
M  V30 17 1 16 18
M  V30 18 2 17 19
M  V30 19 2 18 20
M  V30 20 1 18 21
M  V30 21 1 20 22
M  V30 22 2 21 23
M  V30 23 1 21 24
M  V30 24 1 22 25
M  V30 25 1 23 26
M  V30 26 1 25 27
M  V30 27 2 27 28
M  V30 28 1 27 29
M  V30 29 1 28 30
M  V30 30 2 29 31
M  V30 31 2 30 32
M  V30 32 1 32 33
M  V30 33 2 33 34
M  V30 34 1 33 35
M  V30 35 1 34 36
M  V30 36 1 34 37
M  V30 37 2 35 38
M  V30 38 2 36 39
M  V30 39 1 36 40
M  V30 40 2 37 41
M  V30 41 1 9 10
M  V30 42 1 19 20
M  V30 43 1 22 23
M  V30 44 1 31 32
M  V30 45 1 38 41
M  V30 END BOND
M  V30 END CTAB
M  END
>  <Molecule ChEMBL ID>
CHEMBL3695763

>  <Smiles>
Cc1c(C)n(Cc2ccc(-c3ccccc3C(=O)O)cc2)c2ccc(C(=O)NCc3cccc(S(C)(=O)=O)c3)cc12

>  <IC50_nM>
230

>  <Assay Description>
Lanthascreen Competitive Binding Assay: The assay was performed according to manufacturer protocol. A mixture of nM GST-PPARG-LBD, 5 nM Tb-GST-antibody, 5 nM Fluormone Pan-PPAR Green, and serial dilutions of the experimental compound, beginning at 10 ׬M downwards, was added to wells of black 384-well low-volume plates (Greiner) to a total volume of 18 ׬L. All dilutions were made in TR-FRET assay buffer C. DMSO at 2% final concentration was used as a no-ligand control. Experiment was performed in triplicate, and incubated for 2 hours in the dark prior to assay read in Perkin Elmer ViewLux ultra HTS microplate reader. FRET signal was measured by excitation at 340 nm and emission at 520 nm for fluorescein and 490 nm for terbium. Fold change over DMSO was calculated using GraphPad Prism Software (La Jolla, Calif.) by calculating 520 nm/490 nm ratio. Graphs were plotted as fold change of FRET signal for compound treatment over DMSO-only control.

$$$$
CHEMBL237484
Actelion Java MolfileCreator 2.0

  0  0  0  0  0  0              0 V3000
M  V30 BEGIN CTAB
M  V30 COUNTS 33 36 0 0 0
M  V30 BEGIN ATOM
M  V30 1 Cl 11.3201 -2.5536 0.0 0
M  V30 2 C 9.8201 -2.5536 0.0 0
M  V30 3 C 9.0701 -1.2546 0.0 0
M  V30 4 C 9.0701 -3.8526 0.0 0
M  V30 5 C 7.5701 -1.2546 0.0 0
M  V30 6 C 7.5701 -3.8526 0.0 0
M  V30 7 N 6.5664 -0.1398 0.0 0
M  V30 8 C 6.8201 -2.5536 0.0 0
M  V30 9 C 5.1961 -0.75 0.0 0
M  V30 10 C 5.3529 -2.2417 0.0 0
M  V30 11 C 3.8971 0.0 0.0 0
M  V30 12 O 3.8971 1.5 0.0 0
M  V30 13 N 2.598 -0.75 0.0 0
M  V30 14 C 1.299 0.0 0.0 0
M  V30 15 C 0.0 -0.75 0.0 0
M  V30 16 C -1.299 0.0 0.0 0
M  V30 17 C 0.0 -2.25 0.0 0
M  V30 18 C -2.598 -0.7499 0.0 0
M  V30 19 C -1.299 -2.9999 0.0 0
M  V30 20 O -3.8971 0.0 0.0 0
M  V30 21 C -2.598 -2.2499 0.0 0
M  V30 22 C -5.1961 -0.7499 0.0 0
M  V30 23 C -6.4951 0.0 0.0 0
M  V30 24 C -5.1961 -2.2499 0.0 0
M  V30 25 C -7.7942 -0.7499 0.0 0
M  V30 26 C -6.4951 -2.9999 0.0 0
M  V30 27 C -7.7942 -2.2499 0.0 0
M  V30 28 C -9.0932 0.0 0.0 0
M  V30 29 C -9.0932 -2.9999 0.0 0
M  V30 30 C -9.0932 -4.4999 0.0 0
M  V30 31 C -10.3923 -5.2499 0.0 0
M  V30 32 O -11.6913 -4.4999 0.0 0
M  V30 33 O -10.3923 -6.7499 0.0 0
M  V30 END ATOM
M  V30 BEGIN BOND
M  V30 1 1 1 2
M  V30 2 2 2 3
M  V30 3 1 2 4
M  V30 4 1 3 5
M  V30 5 2 4 6
M  V30 6 1 5 7
M  V30 7 2 5 8
M  V30 8 1 7 9
M  V30 9 1 8 10
M  V30 10 1 9 11
M  V30 11 2 11 12
M  V30 12 1 11 13
M  V30 13 1 13 14
M  V30 14 1 14 15
M  V30 15 2 15 16
M  V30 16 1 15 17
M  V30 17 1 16 18
M  V30 18 2 17 19
M  V30 19 1 18 20
M  V30 20 2 18 21
M  V30 21 1 20 22
M  V30 22 2 22 23
M  V30 23 1 22 24
M  V30 24 1 23 25
M  V30 25 2 24 26
M  V30 26 2 25 27
M  V30 27 1 25 28
M  V30 28 1 27 29
M  V30 29 1 29 30
M  V30 30 1 30 31
M  V30 31 2 31 32
M  V30 32 1 31 33
M  V30 33 1 6 8
M  V30 34 2 9 10
M  V30 35 1 19 21
M  V30 36 1 26 27
M  V30 END BOND
M  V30 END CTAB
M  END
>  <Molecule ChEMBL ID>
CHEMBL237484

>  <Smiles>
Cc1cc(Oc2cccc(CNC(=O)c3cc4ccc(Cl)cc4[nH]3)c2)ccc1CCC(=O)O

>  <IC50_nM>
232.81

>  <Assay Description>
Agonist activity at PPARgamma

$$$$
CHEMBL237484
Actelion Java MolfileCreator 2.0

  0  0  0  0  0  0              0 V3000
M  V30 BEGIN CTAB
M  V30 COUNTS 33 36 0 0 0
M  V30 BEGIN ATOM
M  V30 1 Cl 11.3201 -2.5536 0.0 0
M  V30 2 C 9.8201 -2.5536 0.0 0
M  V30 3 C 9.0701 -1.2546 0.0 0
M  V30 4 C 9.0701 -3.8526 0.0 0
M  V30 5 C 7.5701 -1.2546 0.0 0
M  V30 6 C 7.5701 -3.8526 0.0 0
M  V30 7 N 6.5664 -0.1398 0.0 0
M  V30 8 C 6.8201 -2.5536 0.0 0
M  V30 9 C 5.1961 -0.75 0.0 0
M  V30 10 C 5.3529 -2.2417 0.0 0
M  V30 11 C 3.8971 0.0 0.0 0
M  V30 12 O 3.8971 1.5 0.0 0
M  V30 13 N 2.598 -0.75 0.0 0
M  V30 14 C 1.299 0.0 0.0 0
M  V30 15 C 0.0 -0.75 0.0 0
M  V30 16 C -1.299 0.0 0.0 0
M  V30 17 C 0.0 -2.25 0.0 0
M  V30 18 C -2.598 -0.7499 0.0 0
M  V30 19 C -1.299 -2.9999 0.0 0
M  V30 20 O -3.8971 0.0 0.0 0
M  V30 21 C -2.598 -2.2499 0.0 0
M  V30 22 C -5.1961 -0.7499 0.0 0
M  V30 23 C -6.4951 0.0 0.0 0
M  V30 24 C -5.1961 -2.2499 0.0 0
M  V30 25 C -7.7942 -0.7499 0.0 0
M  V30 26 C -6.4951 -2.9999 0.0 0
M  V30 27 C -7.7942 -2.2499 0.0 0
M  V30 28 C -9.0932 0.0 0.0 0
M  V30 29 C -9.0932 -2.9999 0.0 0
M  V30 30 C -9.0932 -4.4999 0.0 0
M  V30 31 C -10.3923 -5.2499 0.0 0
M  V30 32 O -11.6913 -4.4999 0.0 0
M  V30 33 O -10.3923 -6.7499 0.0 0
M  V30 END ATOM
M  V30 BEGIN BOND
M  V30 1 1 1 2
M  V30 2 2 2 3
M  V30 3 1 2 4
M  V30 4 1 3 5
M  V30 5 2 4 6
M  V30 6 1 5 7
M  V30 7 2 5 8
M  V30 8 1 7 9
M  V30 9 1 8 10
M  V30 10 1 9 11
M  V30 11 2 11 12
M  V30 12 1 11 13
M  V30 13 1 13 14
M  V30 14 1 14 15
M  V30 15 2 15 16
M  V30 16 1 15 17
M  V30 17 1 16 18
M  V30 18 2 17 19
M  V30 19 1 18 20
M  V30 20 2 18 21
M  V30 21 1 20 22
M  V30 22 2 22 23
M  V30 23 1 22 24
M  V30 24 1 23 25
M  V30 25 2 24 26
M  V30 26 2 25 27
M  V30 27 1 25 28
M  V30 28 1 27 29
M  V30 29 1 29 30
M  V30 30 1 30 31
M  V30 31 2 31 32
M  V30 32 1 31 33
M  V30 33 1 6 8
M  V30 34 2 9 10
M  V30 35 1 19 21
M  V30 36 1 26 27
M  V30 END BOND
M  V30 END CTAB
M  END
>  <Molecule ChEMBL ID>
CHEMBL237484

>  <Smiles>
Cc1cc(Oc2cccc(CNC(=O)c3cc4ccc(Cl)cc4[nH]3)c2)ccc1CCC(=O)O

>  <IC50_nM>
233

>  <Assay Description>
Displacement of [3H]2-methyl-2-(4-{3-{propyl-(5-pyridin-2-yl-thiophene-2-sulfonyl)-amino}-propyl}-phenoxy)-propionic acid from human PPARgamma

$$$$
CHEMBL3678146
Actelion Java MolfileCreator 2.0

  0  0  0  0  0  0              0 V3000
M  V30 BEGIN CTAB
M  V30 COUNTS 38 42 0 0 0
M  V30 BEGIN ATOM
M  V30 1 O 5.1961 -0.75 0.0 0
M  V30 2 C 3.8971 0.0 0.0 0
M  V30 3 N 2.598 -0.75 0.0 0
M  V30 4 C 3.8971 1.5 0.0 0
M  V30 5 C 1.299 0.0 0.0 0 CFG=2
M  V30 6 C 2.598 2.25 0.0 0
M  V30 7 C 5.1961 2.25 0.0 0
M  V30 8 C 0.0 -0.75 0.0 0
M  V30 9 C 1.299 1.5 0.0 0
M  V30 10 C 2.598 3.75 0.0 0
M  V30 11 C 5.1961 3.75 0.0 0
M  V30 12 C 0.0 -2.25 0.0 0
M  V30 13 C -1.299 0.0 0.0 0
M  V30 14 C 3.8971 4.5 0.0 0
M  V30 15 C 1.4833 4.7537 0.0 0
M  V30 16 C -1.299 -3.0 0.0 0
M  V30 17 C -2.598 -0.75 0.0 0
M  V30 18 N 3.5852 5.9672 0.0 0
M  V30 19 C 2.0934 6.124 0.0 0
M  V30 20 C 0.0161 4.4418 0.0 0
M  V30 21 C -2.598 -2.25 0.0 0
M  V30 22 C -1.299 -4.5 0.0 0
M  V30 23 C 4.5889 7.0819 0.0 0
M  V30 24 C 1.3434 7.423 0.0 0
M  V30 25 C -0.549 -5.799 0.0 0
M  V30 26 C -2.049 -5.799 0.0 0
M  V30 27 C 4.1254 8.5085 0.0 0
M  V30 28 C 5.1291 9.6232 0.0 0
M  V30 29 C 2.6581 8.8204 0.0 0
M  V30 30 C 4.6655 11.0498 0.0 0
M  V30 31 C 2.1946 10.2469 0.0 0
M  V30 32 C 3.1983 11.3617 0.0 0
M  V30 33 C 5.6692 12.1645 0.0 0
M  V30 34 C 7.1365 11.8526 0.0 0
M  V30 35 C 5.9811 13.6317 0.0 0
M  V30 36 C 4.5545 13.1682 0.0 0
M  V30 37 O 7.6 10.4261 0.0 0
M  V30 38 N 8.1402 12.9674 0.0 0
M  V30 END ATOM
M  V30 BEGIN BOND
M  V30 1 2 1 2
M  V30 2 1 2 3
M  V30 3 1 2 4
M  V30 4 1 3 5
M  V30 5 2 4 6
M  V30 6 1 4 7
M  V30 7 1 5 8
M  V30 8 1 5 9 CFG=3
M  V30 9 1 6 10
M  V30 10 2 7 11
M  V30 11 2 8 12
M  V30 12 1 8 13
M  V30 13 2 10 14
M  V30 14 1 10 15
M  V30 15 1 12 16
M  V30 16 2 13 17
M  V30 17 1 14 18
M  V30 18 2 15 19
M  V30 19 1 15 20
M  V30 20 2 16 21
M  V30 21 1 16 22
M  V30 22 1 18 23
M  V30 23 1 19 24
M  V30 24 1 22 25
M  V30 25 1 22 26
M  V30 26 1 23 27
M  V30 27 2 27 28
M  V30 28 1 27 29
M  V30 29 1 28 30
M  V30 30 2 29 31
M  V30 31 2 30 32
M  V30 32 1 30 33
M  V30 33 1 33 34
M  V30 34 1 33 35
M  V30 35 1 33 36
M  V30 36 2 34 37
M  V30 37 1 34 38
M  V30 38 1 11 14
M  V30 39 1 17 21
M  V30 40 1 18 19
M  V30 41 1 25 26
M  V30 42 1 31 32
M  V30 END BOND
M  V30 BEGIN COLLECTION
M  V30 MDLV30/STEABS ATOMS=(1 5)
M  V30 END COLLECTION
M  V30 END CTAB
M  END
>  <Molecule ChEMBL ID>
CHEMBL3678146

>  <Smiles>
Cc1c(C)n(Cc2cccc(C(C)(C)C(N)=O)c2)c2ccc(C(=O)N[C@@H](C)c3cccc(C4CC4)c3)cc12

>  <IC50_nM>
233

>  <Assay Description>
Lanthascreen Competitive Binding Assay: The assay was performed according to manufacturer protocol. A mixture of 5 nM GST-PPARG-LBD, 5 nM Tb-GST-antibody, 5 nM Fluormone Pan- PPAR Green, and serial dilutions of the experimental compound, beginning at 10 ׬� downwards, was added to wells of black 384-well low- volume plates (Greiner) to a total volume of 18 xL. All dilutions were made in TR-FRET assay buffer C. DMSO at 2% final concentration was used as a no-ligand control. Experiment was performed in triplicate, and incubated for 2 hours in the dark prior to assay read in Perkin Elmer ViewLux ultra HTS microplate reader. FRET signal was measured by excitation at 340 nm and emission at 520 nm for fluorescein and 490 nm for terbium.

$$$$
CHEMBL3398431
Actelion Java MolfileCreator 2.0

  0  0  0  0  0  0              0 V3000
M  V30 BEGIN CTAB
M  V30 COUNTS 39 43 0 0 0
M  V30 BEGIN ATOM
M  V30 1 O 9.2271 1.0408 0.0 0
M  V30 2 C 8.6393 0.2318 0.0 0
M  V30 3 O 9.0461 -0.6816 0.0 0
M  V30 4 N 7.6448 0.3364 0.0 0
M  V30 5 C 8.4583 -1.4906 0.0 0
M  V30 6 C 6.9757 -0.4067 0.0 0
M  V30 7 C 7.1448 1.2024 0.0 0
M  V30 8 C 8.865 -2.4042 0.0 0
M  V30 9 C 7.4638 -1.3861 0.0 0
M  V30 10 C 6.0621 0.0 0.0 0 CFG=2
M  V30 11 C 6.1667 0.9945 0.0 0 CFG=1
M  V30 12 C 8.2772 -3.2132 0.0 0
M  V30 13 C 6.876 -2.1951 0.0 0
M  V30 14 C 5.1961 -0.5 0.0 0
M  V30 15 C 5.4235 1.6636 0.0 0
M  V30 16 C 7.2827 -3.1087 0.0 0
M  V30 17 C 4.3301 0.0 0.0 0
M  V30 18 C 5.1961 -1.4999 0.0 0
M  V30 19 C 5.6314 2.6418 0.0 0
M  V30 20 C 3.4641 -0.5 0.0 0
M  V30 21 C 4.3301 -1.9999 0.0 0
M  V30 22 O 6.5825 2.9508 0.0 0
M  V30 23 O 4.8883 3.3109 0.0 0
M  V30 24 O 2.598 0.0 0.0 0
M  V30 25 C 3.4641 -1.4999 0.0 0
M  V30 26 C 1.732 -0.5 0.0 0
M  V30 27 C 0.866 0.0 0.0 0
M  V30 28 C 0.0 -0.5 0.0 0
M  V30 29 N -0.9135 -0.0932 0.0 0
M  V30 30 C -0.1045 -1.4945 0.0 0
M  V30 31 C -1.5826 -0.8364 0.0 0
M  V30 32 O -1.0826 -1.7024 0.0 0
M  V30 33 C 0.6386 -2.1636 0.0 0
M  V30 34 C -2.5771 -0.7318 0.0 0
M  V30 35 C -2.9839 0.1816 0.0 0
M  V30 36 C -3.1649 -1.5408 0.0 0
M  V30 37 C -3.9784 0.2861 0.0 0
M  V30 38 C -4.1595 -1.4363 0.0 0
M  V30 39 C -4.5662 -0.5228 0.0 0
M  V30 END ATOM
M  V30 BEGIN BOND
M  V30 1 2 1 2
M  V30 2 1 2 3
M  V30 3 1 2 4
M  V30 4 1 3 5
M  V30 5 1 4 6
M  V30 6 1 4 7
M  V30 7 2 5 8
M  V30 8 1 5 9
M  V30 9 1 6 10
M  V30 10 1 7 11
M  V30 11 1 8 12
M  V30 12 2 9 13
M  V30 13 1 10 14 CFG=1
M  V30 14 1 11 15 CFG=1
M  V30 15 2 12 16
M  V30 16 2 14 17
M  V30 17 1 14 18
M  V30 18 1 15 19
M  V30 19 1 17 20
M  V30 20 2 18 21
M  V30 21 2 19 22
M  V30 22 1 19 23
M  V30 23 1 20 24
M  V30 24 2 20 25
M  V30 25 1 24 26
M  V30 26 1 26 27
M  V30 27 1 27 28
M  V30 28 1 28 29
M  V30 29 2 28 30
M  V30 30 2 29 31
M  V30 31 1 30 32
M  V30 32 1 30 33
M  V30 33 1 31 34
M  V30 34 2 34 35
M  V30 35 1 34 36
M  V30 36 1 35 37
M  V30 37 2 36 38
M  V30 38 2 37 39
M  V30 39 1 10 11
M  V30 40 1 13 16
M  V30 41 1 21 25
M  V30 42 1 31 32
M  V30 43 1 38 39
M  V30 END BOND
M  V30 BEGIN COLLECTION
M  V30 MDLV30/STEABS ATOMS=(2 10 11)
M  V30 END COLLECTION
M  V30 END CTAB
M  END
>  <Molecule ChEMBL ID>
CHEMBL3398431

>  <Smiles>
Cc1oc(-c2ccccc2)nc1CCOc1cccc([C@@H]2CN(C(=O)Oc3ccccc3)C[C@@H]2CC(=O)O)c1

>  <IC50_nM>
240

>  <Assay Description>
Binding affinity to PPARgamma (unknown origin) using fluorescein-tagged dual PPARalpha/gamma activator by homogeneous fluorescence polarization binding assay

$$$$
CHEMBL246270
Actelion Java MolfileCreator 2.0

  0  0  0  0  0  0              0 V3000
M  V30 BEGIN CTAB
M  V30 COUNTS 34 37 0 0 0
M  V30 BEGIN ATOM
M  V30 1 O 0.0 -4.4999 0.0 0
M  V30 2 C 0.0 -3.5 0.0 0
M  V30 3 O -0.866 -2.9999 0.0 0
M  V30 4 C 0.866 -2.9999 0.0 0
M  V30 5 N 0.866 -1.9999 0.0 0
M  V30 6 C 1.732 -1.5 0.0 0
M  V30 7 C 0.0 -1.5 0.0 0
M  V30 8 C 2.598 -1.9999 0.0 0
M  V30 9 C 0.0 -0.5 0.0 0
M  V30 10 C 2.598 -2.9999 0.0 0
M  V30 11 C 3.4641 -1.4999 0.0 0
M  V30 12 C -0.866 0.0 0.0 0
M  V30 13 C 0.866 0.0 0.0 0
M  V30 14 C 3.4641 -3.4999 0.0 0
M  V30 15 C 4.3301 -1.9999 0.0 0
M  V30 16 C -0.866 0.9999 0.0 0
M  V30 17 C 0.866 1.0 0.0 0
M  V30 18 O 3.4641 -4.4999 0.0 0
M  V30 19 C 4.3301 -3.0 0.0 0
M  V30 20 C 0.0 1.4999 0.0 0
M  V30 21 C 4.3301 -4.9999 0.0 0
M  V30 22 C 4.3301 -5.9999 0.0 0
M  V30 23 C 5.1961 -6.4999 0.0 0
M  V30 24 N 5.3006 -7.4945 0.0 0
M  V30 25 C 6.1096 -6.0932 0.0 0
M  V30 26 C 6.2788 -7.7024 0.0 0
M  V30 27 O 6.7788 -6.8364 0.0 0
M  V30 28 C 6.3176 -5.1151 0.0 0
M  V30 29 C 6.6855 -8.6159 0.0 0
M  V30 30 C 6.0977 -9.4249 0.0 0
M  V30 31 C 7.68 -8.7205 0.0 0
M  V30 32 C 6.5045 -10.3385 0.0 0
M  V30 33 C 8.0868 -9.634 0.0 0
M  V30 34 C 7.499 -10.443 0.0 0
M  V30 END ATOM
M  V30 BEGIN BOND
M  V30 1 2 1 2
M  V30 2 1 2 3
M  V30 3 1 2 4
M  V30 4 1 4 5
M  V30 5 1 5 6
M  V30 6 1 5 7
M  V30 7 1 6 8
M  V30 8 1 7 9
M  V30 9 2 8 10
M  V30 10 1 8 11
M  V30 11 2 9 12
M  V30 12 1 9 13
M  V30 13 1 10 14
M  V30 14 2 11 15
M  V30 15 1 12 16
M  V30 16 2 13 17
M  V30 17 1 14 18
M  V30 18 2 14 19
M  V30 19 2 16 20
M  V30 20 1 18 21
M  V30 21 1 21 22
M  V30 22 1 22 23
M  V30 23 1 23 24
M  V30 24 2 23 25
M  V30 25 2 24 26
M  V30 26 1 25 27
M  V30 27 1 25 28
M  V30 28 1 26 29
M  V30 29 2 29 30
M  V30 30 1 29 31
M  V30 31 1 30 32
M  V30 32 2 31 33
M  V30 33 2 32 34
M  V30 34 1 15 19
M  V30 35 1 17 20
M  V30 36 1 26 27
M  V30 37 1 33 34
M  V30 END BOND
M  V30 END CTAB
M  END
>  <Molecule ChEMBL ID>
CHEMBL246270

>  <Smiles>
Cc1oc(-c2ccccc2)nc1CCOc1cccc(CN(CC(=O)O)Cc2ccccc2)c1

>  <IC50_nM>
240

>  <Assay Description>
Displacement of fluorescein labeled ligand from PPARgamma receptor by fluorescence polarization assay

$$$$
CHEMBL3695833
Actelion Java MolfileCreator 2.0

  0  0  0  0  0  0              0 V3000
M  V30 BEGIN CTAB
M  V30 COUNTS 39 43 0 0 0
M  V30 BEGIN ATOM
M  V30 1 O 11.8592 -3.5669 0.0 0
M  V30 2 C 10.8811 -3.7748 0.0 0
M  V30 3 O 10.212 -3.0316 0.0 0
M  V30 4 C 10.5721 -4.7258 0.0 0
M  V30 5 C 9.5939 -4.9337 0.0 0
M  V30 6 C 11.2412 -5.469 0.0 0
M  V30 7 C 8.9248 -4.1906 0.0 0
M  V30 8 C 9.2849 -5.8848 0.0 0
M  V30 9 C 10.9322 -6.42 0.0 0
M  V30 10 C 9.2338 -3.2395 0.0 0
M  V30 11 C 7.9466 -4.3985 0.0 0
M  V30 12 C 9.954 -6.6279 0.0 0
M  V30 13 C 8.5647 -2.4964 0.0 0
M  V30 14 C 7.2775 -3.6554 0.0 0
M  V30 15 C 7.5865 -2.7043 0.0 0
M  V30 16 C 6.9174 -1.9612 0.0 0
M  V30 17 N 5.9392 -2.1691 0.0 0
M  V30 18 C 5.1961 -1.4999 0.0 0
M  V30 19 C 5.5325 -3.0826 0.0 0
M  V30 20 C 4.3301 -1.9999 0.0 0
M  V30 21 C 5.1961 -0.4999 0.0 0
M  V30 22 C 4.538 -2.9781 0.0 0
M  V30 23 C 6.0325 -3.9487 0.0 0
M  V30 24 C 3.4641 -1.5 0.0 0
M  V30 25 C 4.3301 0.0 0.0 0
M  V30 26 C 3.8689 -3.7212 0.0 0
M  V30 27 C 3.4641 -0.5 0.0 0
M  V30 28 C 2.598 0.0 0.0 0
M  V30 29 O 2.598 1.0 0.0 0
M  V30 30 N 1.732 -0.5 0.0 0
M  V30 31 C 0.866 0.0 0.0 0 CFG=2
M  V30 32 C 0.866 1.0 0.0 0
M  V30 33 C 0.0 -0.5 0.0 0
M  V30 34 C 1.732 1.4999 0.0 0
M  V30 35 C 0.0 1.4999 0.0 0
M  V30 36 C 1.732 2.5 0.0 0
M  V30 37 C 0.0 2.5 0.0 0
M  V30 38 C 0.866 3.0 0.0 0
M  V30 39 N 0.866 4.0 0.0 0
M  V30 END ATOM
M  V30 BEGIN BOND
M  V30 1 2 1 2
M  V30 2 1 2 3
M  V30 3 1 2 4
M  V30 4 2 4 5
M  V30 5 1 4 6
M  V30 6 1 5 7
M  V30 7 1 5 8
M  V30 8 2 6 9
M  V30 9 2 7 10
M  V30 10 1 7 11
M  V30 11 2 8 12
M  V30 12 1 10 13
M  V30 13 2 11 14
M  V30 14 2 13 15
M  V30 15 1 15 16
M  V30 16 1 16 17
M  V30 17 1 17 18
M  V30 18 1 17 19
M  V30 19 2 18 20
M  V30 20 1 18 21
M  V30 21 2 19 22
M  V30 22 1 19 23
M  V30 23 1 20 24
M  V30 24 2 21 25
M  V30 25 1 22 26
M  V30 26 2 24 27
M  V30 27 1 27 28
M  V30 28 2 28 29
M  V30 29 1 28 30
M  V30 30 1 30 31
M  V30 31 1 31 32
M  V30 32 1 31 33 CFG=1
M  V30 33 2 32 34
M  V30 34 1 32 35
M  V30 35 1 34 36
M  V30 36 2 35 37
M  V30 37 2 36 38
M  V30 38 1 38 39
M  V30 39 1 9 12
M  V30 40 1 14 15
M  V30 41 1 20 22
M  V30 42 1 25 27
M  V30 43 1 37 38
M  V30 END BOND
M  V30 BEGIN COLLECTION
M  V30 MDLV30/STEABS ATOMS=(1 31)
M  V30 END COLLECTION
M  V30 END CTAB
M  END
>  <Molecule ChEMBL ID>
CHEMBL3695833

>  <Smiles>
Cc1c(C)n(Cc2ccc(-c3ccccc3C(=O)O)cc2)c2ccc(C(=O)N[C@@H](C)c3ccc(N)cc3)cc12

>  <IC50_nM>
240

>  <Assay Description>
Lanthascreen Competitive Binding Assay: The assay was performed according to manufacturer protocol. A mixture of nM GST-PPARG-LBD, 5 nM Tb-GST-antibody, 5 nM Fluormone Pan-PPAR Green, and serial dilutions of the experimental compound, beginning at 10 ׬M downwards, was added to wells of black 384-well low-volume plates (Greiner) to a total volume of 18 ׬L. All dilutions were made in TR-FRET assay buffer C. DMSO at 2% final concentration was used as a no-ligand control. Experiment was performed in triplicate, and incubated for 2 hours in the dark prior to assay read in Perkin Elmer ViewLux ultra HTS microplate reader. FRET signal was measured by excitation at 340 nm and emission at 520 nm for fluorescein and 490 nm for terbium. Fold change over DMSO was calculated using GraphPad Prism Software (La Jolla, Calif.) by calculating 520 nm/490 nm ratio. Graphs were plotted as fold change of FRET signal for compound treatment over DMSO-only control.

$$$$
CHEMBL3699356
Actelion Java MolfileCreator 2.0

  0  0  0  0  0  0              0 V3000
M  V30 BEGIN CTAB
M  V30 COUNTS 46 50 0 0 0
M  V30 BEGIN ATOM
M  V30 1 F 3.3301 1.0 0.0 0
M  V30 2 C 4.3301 0.9999 0.0 0
M  V30 3 F 4.3301 1.9999 0.0 0
M  V30 4 F 5.3301 0.9999 0.0 0
M  V30 5 C 4.3301 0.0 0.0 0
M  V30 6 C 3.4641 -0.5 0.0 0
M  V30 7 C 5.1961 -0.5 0.0 0
M  V30 8 C 3.4641 -1.5 0.0 0
M  V30 9 C 2.598 0.0 0.0 0 CFG=1
M  V30 10 C 5.1961 -1.5 0.0 0
M  V30 11 C 4.3301 -2.0 0.0 0
M  V30 12 N 1.732 -0.5 0.0 0
M  V30 13 C 2.598 1.0 0.0 0
M  V30 14 C 6.0621 -2.0 0.0 0
M  V30 15 C 0.866 0.0 0.0 0
M  V30 16 F 6.5621 -1.1339 0.0 0
M  V30 17 F 6.9282 -2.5 0.0 0
M  V30 18 F 5.5621 -2.866 0.0 0
M  V30 19 O 0.866 1.0 0.0 0
M  V30 20 C 0.0 -0.5 0.0 0
M  V30 21 C 0.0 -1.4999 0.0 0
M  V30 22 C -0.866 0.0 0.0 0
M  V30 23 C -0.866 -1.9999 0.0 0
M  V30 24 C -1.732 -0.4999 0.0 0
M  V30 25 C -1.732 -1.4999 0.0 0
M  V30 26 C -1.0739 -2.9781 0.0 0
M  V30 27 N -2.4751 -2.1691 0.0 0
M  V30 28 C -2.0684 -3.0826 0.0 0
M  V30 29 C -0.4048 -3.7212 0.0 0
M  V30 30 C -3.4533 -1.9612 0.0 0
M  V30 31 C -2.5684 -3.9487 0.0 0
M  V30 32 C -4.1224 -2.7043 0.0 0
M  V30 33 C -5.1006 -2.4964 0.0 0
M  V30 34 C -3.8134 -3.6554 0.0 0
M  V30 35 C -5.7697 -3.2395 0.0 0
M  V30 36 C -4.4825 -4.3985 0.0 0
M  V30 37 C -5.4607 -4.1906 0.0 0
M  V30 38 C -6.1298 -4.9337 0.0 0
M  V30 39 C -7.108 -4.7258 0.0 0
M  V30 40 C -5.8208 -5.8848 0.0 0
M  V30 41 C -7.417 -3.7748 0.0 0
M  V30 42 C -7.7771 -5.469 0.0 0
M  V30 43 C -6.4899 -6.6279 0.0 0
M  V30 44 O -6.7478 -3.0316 0.0 0
M  V30 45 O -8.3951 -3.5669 0.0 0
M  V30 46 C -7.4681 -6.42 0.0 0
M  V30 END ATOM
M  V30 BEGIN BOND
M  V30 1 1 1 2
M  V30 2 1 2 3
M  V30 3 1 2 4
M  V30 4 1 2 5
M  V30 5 2 5 6
M  V30 6 1 5 7
M  V30 7 1 6 8
M  V30 8 1 6 9
M  V30 9 2 7 10
M  V30 10 2 8 11
M  V30 11 1 9 12
M  V30 12 1 9 13 CFG=1
M  V30 13 1 10 14
M  V30 14 1 12 15
M  V30 15 1 14 16
M  V30 16 1 14 17
M  V30 17 1 14 18
M  V30 18 2 15 19
M  V30 19 1 15 20
M  V30 20 2 20 21
M  V30 21 1 20 22
M  V30 22 1 21 23
M  V30 23 2 22 24
M  V30 24 2 23 25
M  V30 25 1 23 26
M  V30 26 1 25 27
M  V30 27 2 26 28
M  V30 28 1 26 29
M  V30 29 1 27 30
M  V30 30 1 28 31
M  V30 31 1 30 32
M  V30 32 2 32 33
M  V30 33 1 32 34
M  V30 34 1 33 35
M  V30 35 2 34 36
M  V30 36 2 35 37
M  V30 37 1 37 38
M  V30 38 2 38 39
M  V30 39 1 38 40
M  V30 40 1 39 41
M  V30 41 1 39 42
M  V30 42 2 40 43
M  V30 43 2 41 44
M  V30 44 1 41 45
M  V30 45 2 42 46
M  V30 46 1 10 11
M  V30 47 1 24 25
M  V30 48 1 27 28
M  V30 49 1 36 37
M  V30 50 1 43 46
M  V30 END BOND
M  V30 BEGIN COLLECTION
M  V30 MDLV30/STEABS ATOMS=(1 9)
M  V30 END COLLECTION
M  V30 END CTAB
M  END
>  <Molecule ChEMBL ID>
CHEMBL3699356

>  <Smiles>
Cc1c(C)n(Cc2ccc(-c3ccccc3C(=O)O)cc2)c2ccc(C(=O)N[C@@H](C)c3ccc(C(F)(F)F)cc3C(F)(F)F)cc12

>  <IC50_nM>
241

>  <Assay Description>
Lanthascreen Competitive Binding Assay: The assay was performed according to manufacturer protocol. A mixture of nM GST-PPARG-LBD, 5 nM Tb-GST-antibody, 5 nM Fluormone Pan-PPAR Green, and serial dilutions of the experimental compound, beginning at 10 ׬M downwards, was added to wells of black 384-well low-volume plates (Greiner) to a total volume of 18 ׬L. All dilutions were made in TR-FRET assay buffer C. DMSO at 2% final concentration was used as a no-ligand control. Experiment was performed in triplicate, and incubated for 2 hours in the dark prior to assay read in Perkin Elmer ViewLux ultra HTS microplate reader. FRET signal was measured by excitation at 340 nm and emission at 520 nm for fluorescein and 490 nm for terbium. Fold change over DMSO was calculated using GraphPad Prism Software (La Jolla, Calif.) by calculating 520 nm/490 nm ratio. Graphs were plotted as fold change of FRET signal for compound treatment over DMSO-only control.

$$$$
CHEMBL3695786
Actelion Java MolfileCreator 2.0

  0  0  0  0  0  0              0 V3000
M  V30 BEGIN CTAB
M  V30 COUNTS 39 43 0 0 0
M  V30 BEGIN ATOM
M  V30 1 O 11.1837 5.7369 0.0 0
M  V30 2 C 10.8747 4.7859 0.0 0
M  V30 3 O 9.8965 4.578 0.0 0
M  V30 4 C 11.5438 4.0427 0.0 0
M  V30 5 C 11.2348 3.0917 0.0 0
M  V30 6 C 12.522 4.2506 0.0 0
M  V30 7 C 10.2566 2.8838 0.0 0
M  V30 8 C 11.9039 2.3485 0.0 0
M  V30 9 C 13.1911 3.5075 0.0 0
M  V30 10 C 9.5875 3.6269 0.0 0
M  V30 11 C 9.9476 1.9327 0.0 0
M  V30 12 C 12.8821 2.5564 0.0 0
M  V30 13 C 8.6094 3.419 0.0 0
M  V30 14 C 8.9695 1.7248 0.0 0
M  V30 15 C 8.3003 2.4679 0.0 0
M  V30 16 C 7.3222 2.26 0.0 0
M  V30 17 N 7.0132 1.309 0.0 0
M  V30 18 C 6.0621 0.9999 0.0 0
M  V30 19 C 7.601 0.5 0.0 0
M  V30 20 C 6.0621 0.0 0.0 0
M  V30 21 C 5.1961 1.4999 0.0 0
M  V30 22 C 7.0132 -0.309 0.0 0
M  V30 23 C 8.601 0.5 0.0 0
M  V30 24 C 5.1961 -0.5 0.0 0
M  V30 25 C 4.3301 0.9999 0.0 0
M  V30 26 C 7.3222 -1.26 0.0 0
M  V30 27 C 4.3301 0.0 0.0 0
M  V30 28 C 3.4641 -0.5 0.0 0
M  V30 29 O 3.4641 -1.5 0.0 0
M  V30 30 N 2.598 0.0 0.0 0
M  V30 31 C 1.732 -0.5 0.0 0
M  V30 32 C 0.866 0.0 0.0 0
M  V30 33 O 0.866 1.0 0.0 0
M  V30 34 C 0.0 -0.5 0.0 0
M  V30 35 C -0.866 0.0 0.0 0
M  V30 36 C 0.0 -1.4999 0.0 0
M  V30 37 C -1.732 -0.4999 0.0 0
M  V30 38 C -0.866 -1.9999 0.0 0
M  V30 39 C -1.732 -1.4999 0.0 0
M  V30 END ATOM
M  V30 BEGIN BOND
M  V30 1 2 1 2
M  V30 2 1 2 3
M  V30 3 1 2 4
M  V30 4 2 4 5
M  V30 5 1 4 6
M  V30 6 1 5 7
M  V30 7 1 5 8
M  V30 8 2 6 9
M  V30 9 2 7 10
M  V30 10 1 7 11
M  V30 11 2 8 12
M  V30 12 1 10 13
M  V30 13 2 11 14
M  V30 14 2 13 15
M  V30 15 1 15 16
M  V30 16 1 16 17
M  V30 17 1 17 18
M  V30 18 1 17 19
M  V30 19 2 18 20
M  V30 20 1 18 21
M  V30 21 2 19 22
M  V30 22 1 19 23
M  V30 23 1 20 24
M  V30 24 2 21 25
M  V30 25 1 22 26
M  V30 26 2 24 27
M  V30 27 1 27 28
M  V30 28 2 28 29
M  V30 29 1 28 30
M  V30 30 1 30 31
M  V30 31 1 31 32
M  V30 32 2 32 33
M  V30 33 1 32 34
M  V30 34 2 34 35
M  V30 35 1 34 36
M  V30 36 1 35 37
M  V30 37 2 36 38
M  V30 38 2 37 39
M  V30 39 1 9 12
M  V30 40 1 14 15
M  V30 41 1 20 22
M  V30 42 1 25 27
M  V30 43 1 38 39
M  V30 END BOND
M  V30 END CTAB
M  END
>  <Molecule ChEMBL ID>
CHEMBL3695786

>  <Smiles>
Cc1c(C)n(Cc2ccc(-c3ccccc3C(=O)O)cc2)c2ccc(C(=O)NCC(=O)c3ccccc3)cc12

>  <IC50_nM>
244

>  <Assay Description>
Lanthascreen Competitive Binding Assay: The assay was performed according to manufacturer protocol. A mixture of nM GST-PPARG-LBD, 5 nM Tb-GST-antibody, 5 nM Fluormone Pan-PPAR Green, and serial dilutions of the experimental compound, beginning at 10 ׬M downwards, was added to wells of black 384-well low-volume plates (Greiner) to a total volume of 18 ׬L. All dilutions were made in TR-FRET assay buffer C. DMSO at 2% final concentration was used as a no-ligand control. Experiment was performed in triplicate, and incubated for 2 hours in the dark prior to assay read in Perkin Elmer ViewLux ultra HTS microplate reader. FRET signal was measured by excitation at 340 nm and emission at 520 nm for fluorescein and 490 nm for terbium. Fold change over DMSO was calculated using GraphPad Prism Software (La Jolla, Calif.) by calculating 520 nm/490 nm ratio. Graphs were plotted as fold change of FRET signal for compound treatment over DMSO-only control.

$$$$
CHEMBL3695836
Actelion Java MolfileCreator 2.0

  0  0  0  0  0  0              0 V3000
M  V30 BEGIN CTAB
M  V30 COUNTS 43 48 0 0 0
M  V30 BEGIN ATOM
M  V30 1 O 11.8592 -3.5669 0.0 0
M  V30 2 C 10.8811 -3.7748 0.0 0
M  V30 3 O 10.212 -3.0316 0.0 0
M  V30 4 C 10.5721 -4.7258 0.0 0
M  V30 5 C 9.5939 -4.9337 0.0 0
M  V30 6 C 11.2412 -5.469 0.0 0
M  V30 7 C 8.9248 -4.1906 0.0 0
M  V30 8 C 9.2849 -5.8848 0.0 0
M  V30 9 C 10.9322 -6.42 0.0 0
M  V30 10 C 9.2338 -3.2395 0.0 0
M  V30 11 C 7.9466 -4.3985 0.0 0
M  V30 12 C 9.954 -6.6279 0.0 0
M  V30 13 C 8.5647 -2.4964 0.0 0
M  V30 14 C 7.2775 -3.6554 0.0 0
M  V30 15 C 7.5865 -2.7043 0.0 0
M  V30 16 C 6.9174 -1.9612 0.0 0
M  V30 17 N 5.9392 -2.1691 0.0 0
M  V30 18 C 5.1961 -1.4999 0.0 0
M  V30 19 C 5.5325 -3.0826 0.0 0
M  V30 20 C 4.3301 -1.9999 0.0 0
M  V30 21 C 5.1961 -0.4999 0.0 0
M  V30 22 C 4.538 -2.9781 0.0 0
M  V30 23 C 6.0325 -3.9487 0.0 0
M  V30 24 C 3.4641 -1.5 0.0 0
M  V30 25 C 4.3301 0.0 0.0 0
M  V30 26 C 3.8689 -3.7212 0.0 0
M  V30 27 C 3.4641 -0.5 0.0 0
M  V30 28 C 2.598 0.0 0.0 0
M  V30 29 O 2.598 1.0 0.0 0
M  V30 30 N 1.732 -0.5 0.0 0
M  V30 31 C 0.866 0.0 0.0 0
M  V30 32 C 0.0 -0.5 0.0 0
M  V30 33 C -0.866 0.0 0.0 0
M  V30 34 C 0.0 -1.4999 0.0 0
M  V30 35 C -1.732 -0.4999 0.0 0
M  V30 36 C -0.866 -1.9999 0.0 0
M  V30 37 C -1.732 -1.4999 0.0 0
M  V30 38 C -2.598 -1.9999 0.0 0
M  V30 39 C -3.4641 -1.4999 0.0 0
M  V30 40 C -2.598 -2.9999 0.0 0
M  V30 41 C -4.3301 -1.9999 0.0 0
M  V30 42 C -3.4641 -3.4999 0.0 0
M  V30 43 C -4.3301 -2.9999 0.0 0
M  V30 END ATOM
M  V30 BEGIN BOND
M  V30 1 2 1 2
M  V30 2 1 2 3
M  V30 3 1 2 4
M  V30 4 2 4 5
M  V30 5 1 4 6
M  V30 6 1 5 7
M  V30 7 1 5 8
M  V30 8 2 6 9
M  V30 9 2 7 10
M  V30 10 1 7 11
M  V30 11 2 8 12
M  V30 12 1 10 13
M  V30 13 2 11 14
M  V30 14 2 13 15
M  V30 15 1 15 16
M  V30 16 1 16 17
M  V30 17 1 17 18
M  V30 18 1 17 19
M  V30 19 2 18 20
M  V30 20 1 18 21
M  V30 21 2 19 22
M  V30 22 1 19 23
M  V30 23 1 20 24
M  V30 24 2 21 25
M  V30 25 1 22 26
M  V30 26 2 24 27
M  V30 27 1 27 28
M  V30 28 2 28 29
M  V30 29 1 28 30
M  V30 30 1 30 31
M  V30 31 1 31 32
M  V30 32 2 32 33
M  V30 33 1 32 34
M  V30 34 1 33 35
M  V30 35 2 34 36
M  V30 36 2 35 37
M  V30 37 1 37 38
M  V30 38 2 38 39
M  V30 39 1 38 40
M  V30 40 1 39 41
M  V30 41 2 40 42
M  V30 42 2 41 43
M  V30 43 1 9 12
M  V30 44 1 14 15
M  V30 45 1 20 22
M  V30 46 1 25 27
M  V30 47 1 36 37
M  V30 48 1 42 43
M  V30 END BOND
M  V30 END CTAB
M  END
>  <Molecule ChEMBL ID>
CHEMBL3695836

>  <Smiles>
Cc1c(C)n(Cc2ccc(-c3ccccc3C(=O)O)cc2)c2ccc(C(=O)NCc3ccc(-c4ccccc4)cc3)cc12

>  <IC50_nM>
247

>  <Assay Description>
Lanthascreen Competitive Binding Assay: The assay was performed according to manufacturer protocol. A mixture of nM GST-PPARG-LBD, 5 nM Tb-GST-antibody, 5 nM Fluormone Pan-PPAR Green, and serial dilutions of the experimental compound, beginning at 10 ׬M downwards, was added to wells of black 384-well low-volume plates (Greiner) to a total volume of 18 ׬L. All dilutions were made in TR-FRET assay buffer C. DMSO at 2% final concentration was used as a no-ligand control. Experiment was performed in triplicate, and incubated for 2 hours in the dark prior to assay read in Perkin Elmer ViewLux ultra HTS microplate reader. FRET signal was measured by excitation at 340 nm and emission at 520 nm for fluorescein and 490 nm for terbium. Fold change over DMSO was calculated using GraphPad Prism Software (La Jolla, Calif.) by calculating 520 nm/490 nm ratio. Graphs were plotted as fold change of FRET signal for compound treatment over DMSO-only control.

$$$$
CHEMBL557580
Actelion Java MolfileCreator 2.0

  0  0  0  0  0  0              0 V3000
M  V30 BEGIN CTAB
M  V30 COUNTS 39 41 0 0 0
M  V30 BEGIN ATOM
M  V30 1 Cl 3.8084 0.7748 0.0 0
M  V30 2 O -0.0445 4.6858 0.0 0
M  V30 3 C -0.8105 4.043 0.0 0
M  V30 4 O -1.7502 4.3851 0.0 0
M  V30 5 N -0.6369 3.0582 0.0 0
M  V30 6 C -1.9239 5.3699 0.0 0
M  V30 7 C -1.4029 2.4154 0.0 0
M  V30 8 C 0.3027 2.7162 0.0 0
M  V30 9 C -1.1578 6.0127 0.0 0
M  V30 10 C -2.8636 5.7119 0.0 0
M  V30 11 C -1.2293 1.4306 0.0 0
M  V30 12 C 1.0688 3.359 0.0 0
M  V30 13 C -1.3315 6.9975 0.0 0
M  V30 14 C -3.0372 6.6967 0.0 0
M  V30 15 C -1.9953 0.7878 0.0 0
M  V30 16 C -0.2896 1.0886 0.0 0
M  V30 17 O 0.8951 4.3438 0.0 0
M  V30 18 O 2.0084 3.017 0.0 0
M  V30 19 C -2.2712 7.3395 0.0 0
M  V30 20 C -1.8217 -0.1969 0.0 0
M  V30 21 C -0.1159 0.1038 0.0 0
M  V30 22 O -2.4448 8.3243 0.0 0
M  V30 23 C -0.882 -0.5389 0.0 0
M  V30 24 C -3.3845 8.6663 0.0 0
M  V30 25 O -0.7083 -1.5237 0.0 0
M  V30 26 C 0.2313 -1.8657 0.0 0
M  V30 27 C 0.4049 -2.8505 0.0 0
M  V30 28 C 1.3446 -3.1925 0.0 0
M  V30 29 N 1.6202 -4.1538 0.0 0
M  V30 30 C 2.1736 -2.6333 0.0 0
M  V30 31 C 2.6196 -4.1887 0.0 0
M  V30 32 O 2.9616 -3.249 0.0 0
M  V30 33 C 2.2085 -1.634 0.0 0
M  V30 34 C 3.1788 -5.0177 0.0 0
M  V30 35 C 2.7405 -5.9165 0.0 0
M  V30 36 C 4.1764 -4.948 0.0 0
M  V30 37 C 3.2996 -6.7456 0.0 0
M  V30 38 C 4.7356 -5.777 0.0 0
M  V30 39 C 4.2972 -6.6758 0.0 0
M  V30 END ATOM
M  V30 BEGIN BOND
M  V30 1 2 2 3
M  V30 2 1 3 4
M  V30 3 1 3 5
M  V30 4 1 4 6
M  V30 5 1 5 7
M  V30 6 1 5 8
M  V30 7 2 6 9
M  V30 8 1 6 10
M  V30 9 1 7 11
M  V30 10 1 8 12
M  V30 11 1 9 13
M  V30 12 2 10 14
M  V30 13 2 11 15
M  V30 14 1 11 16
M  V30 15 2 12 17
M  V30 16 1 12 18
M  V30 17 2 13 19
M  V30 18 1 15 20
M  V30 19 2 16 21
M  V30 20 1 19 22
M  V30 21 2 20 23
M  V30 22 1 22 24
M  V30 23 1 23 25
M  V30 24 1 25 26
M  V30 25 1 26 27
M  V30 26 1 27 28
M  V30 27 1 28 29
M  V30 28 2 28 30
M  V30 29 2 29 31
M  V30 30 1 30 32
M  V30 31 1 30 33
M  V30 32 1 31 34
M  V30 33 2 34 35
M  V30 34 1 34 36
M  V30 35 1 35 37
M  V30 36 2 36 38
M  V30 37 2 37 39
M  V30 38 1 14 19
M  V30 39 1 21 23
M  V30 40 1 31 32
M  V30 41 1 38 39
M  V30 END BOND
M  V30 END CTAB
M  END
>  <Molecule ChEMBL ID>
CHEMBL557580

>  <Smiles>
COc1ccc(OC(=O)N(CC(=O)O)Cc2ccc(OCCc3nc(-c4ccccc4)oc3C)cc2)cc1.Cl

>  <IC50_nM>
247

>  <Assay Description>
Binding affinity at PPAR gamma receptor

$$$$
CHEMBL1088910
Actelion Java MolfileCreator 2.0

  0  0  0  0  0  0              0 V3000
M  V30 BEGIN CTAB
M  V30 COUNTS 37 40 0 0 0
M  V30 BEGIN ATOM
M  V30 1 Cl 20.0324 4.3774 0.0 0
M  V30 2 C 18.5407 4.5342 0.0 0
M  V30 3 C 17.9306 5.9045 0.0 0
M  V30 4 C 17.659 3.3207 0.0 0
M  V30 5 C 16.4388 6.0613 0.0 0
M  V30 6 C 16.1672 3.4775 0.0 0
M  V30 7 C 15.5571 4.8478 0.0 0
M  V30 8 C 14.0653 5.0046 0.0 0
M  V30 9 O 13.3153 6.3036 0.0 0
M  V30 10 N 13.0616 3.8898 0.0 0
M  V30 11 C 11.8481 5.9917 0.0 0
M  V30 12 C 11.6913 4.5 0.0 0
M  V30 13 C 10.7334 6.9954 0.0 0
M  V30 14 C 10.3923 3.75 0.0 0
M  V30 15 O 9.0932 4.5 0.0 0
M  V30 16 C 7.7942 3.75 0.0 0
M  V30 17 C 6.4951 4.5 0.0 0
M  V30 18 C 7.7942 2.25 0.0 0
M  V30 19 C 5.1961 3.75 0.0 0
M  V30 20 C 6.4951 1.5 0.0 0
M  V30 21 C 5.1961 2.25 0.0 0
M  V30 22 C 3.8971 1.5 0.0 0
M  V30 23 N 3.8971 0.0 0.0 0
M  V30 24 C 5.1961 -0.75 0.0 0
M  V30 25 C 2.598 -0.75 0.0 0
M  V30 26 O 5.1961 -2.25 0.0 0
M  V30 27 O 6.4951 0.0 0.0 0
M  V30 28 C 1.299 0.0 0.0 0
M  V30 29 C 7.7942 -0.75 0.0 0
M  V30 30 O 1.299 1.5 0.0 0
M  V30 31 O 0.0 -0.75 0.0 0
M  V30 32 C 7.7942 -2.25 0.0 0
M  V30 33 C 9.0932 0.0 0.0 0
M  V30 34 C 9.0932 -3.0 0.0 0
M  V30 35 C 10.3923 -0.75 0.0 0
M  V30 36 C 10.3923 -2.25 0.0 0
M  V30 37 C 11.6913 -3.0 0.0 0
M  V30 END ATOM
M  V30 BEGIN BOND
M  V30 1 1 1 2
M  V30 2 2 2 3
M  V30 3 1 2 4
M  V30 4 1 3 5
M  V30 5 2 4 6
M  V30 6 2 5 7
M  V30 7 1 7 8
M  V30 8 1 8 9
M  V30 9 2 8 10
M  V30 10 1 9 11
M  V30 11 1 10 12
M  V30 12 1 11 13
M  V30 13 1 12 14
M  V30 14 1 14 15
M  V30 15 1 15 16
M  V30 16 2 16 17
M  V30 17 1 16 18
M  V30 18 1 17 19
M  V30 19 2 18 20
M  V30 20 2 19 21
M  V30 21 1 21 22
M  V30 22 1 22 23
M  V30 23 1 23 24
M  V30 24 1 23 25
M  V30 25 2 24 26
M  V30 26 1 24 27
M  V30 27 1 25 28
M  V30 28 1 27 29
M  V30 29 2 28 30
M  V30 30 1 28 31
M  V30 31 2 29 32
M  V30 32 1 29 33
M  V30 33 1 32 34
M  V30 34 2 33 35
M  V30 35 2 34 36
M  V30 36 1 36 37
M  V30 37 1 6 7
M  V30 38 2 11 12
M  V30 39 1 20 21
M  V30 40 1 35 36
M  V30 END BOND
M  V30 END CTAB
M  END
>  <Molecule ChEMBL ID>
CHEMBL1088910

>  <Smiles>
Cc1ccc(OC(=O)N(CC(=O)O)Cc2ccc(OCc3nc(-c4ccc(Cl)cc4)oc3C)cc2)cc1

>  <IC50_nM>
247.8

>  <Assay Description>
Binding affinity to human His-tagged PPARgamma LBD (Q203-Y477) expressed in Escherichia coli BL21 (DE3) by fluorescence polarization assay

$$$$
CHEMBL429734
Actelion Java MolfileCreator 2.0

  0  0  0  0  0  0              0 V3000
M  V30 BEGIN CTAB
M  V30 COUNTS 41 45 0 0 0
M  V30 BEGIN ATOM
M  V30 1 Cl 7.3492 -3.7385 0.0 0
M  V30 2 C 6.3547 -3.634 0.0 0
M  V30 3 C 5.948 -2.7205 0.0 0
M  V30 4 C 5.7669 -4.443 0.0 0
M  V30 5 C 4.9535 -2.6159 0.0 0
M  V30 6 C 4.7724 -4.3385 0.0 0
M  V30 7 C 4.5467 -1.7024 0.0 0
M  V30 8 C 4.3657 -3.4249 0.0 0
M  V30 9 O 5.0467 -0.8364 0.0 0
M  V30 10 N 3.5686 -1.4945 0.0 0
M  V30 11 C 4.3776 -0.0932 0.0 0
M  V30 12 C 3.4641 -0.5 0.0 0
M  V30 13 C 4.5855 0.8848 0.0 0
M  V30 14 C 2.598 0.0 0.0 0
M  V30 15 C 1.732 -0.5 0.0 0
M  V30 16 O 0.866 0.0 0.0 0
M  V30 17 C 0.0 -0.5 0.0 0
M  V30 18 C -0.866 0.0 0.0 0
M  V30 19 C 0.0 -1.4999 0.0 0
M  V30 20 C -1.732 -0.4999 0.0 0
M  V30 21 C -0.866 -1.9999 0.0 0
M  V30 22 C -1.732 -1.4999 0.0 0
M  V30 23 C -2.598 0.0 0.0 0
M  V30 24 C -3.4641 -0.4999 0.0 0 CFG=2
M  V30 25 C -4.43 -0.2411 0.0 0
M  V30 26 C -3.7229 -1.4659 0.0 0 CFG=2
M  V30 27 O -4.93 0.6248 0.0 0
M  V30 28 N -4.6888 -1.2071 0.0 0
M  V30 29 C -3.2229 -2.3319 0.0 0
M  V30 30 C -5.5548 -1.7071 0.0 0
M  V30 31 O -3.7229 -3.1979 0.0 0
M  V30 32 O -2.2229 -2.3319 0.0 0
M  V30 33 C -6.4208 -1.2071 0.0 0
M  V30 34 C -5.5548 -2.7071 0.0 0
M  V30 35 C -7.2869 -1.7071 0.0 0
M  V30 36 C -6.4208 -3.2071 0.0 0
M  V30 37 C -7.2869 -2.7071 0.0 0
M  V30 38 C -8.1529 -3.2071 0.0 0
M  V30 39 C -7.6529 -4.0731 0.0 0
M  V30 40 C -9.0189 -3.7071 0.0 0
M  V30 41 C -8.6529 -2.341 0.0 0
M  V30 END ATOM
M  V30 BEGIN BOND
M  V30 1 1 1 2
M  V30 2 2 2 3
M  V30 3 1 2 4
M  V30 4 1 3 5
M  V30 5 2 4 6
M  V30 6 1 5 7
M  V30 7 2 5 8
M  V30 8 1 7 9
M  V30 9 2 7 10
M  V30 10 1 9 11
M  V30 11 1 10 12
M  V30 12 1 11 13
M  V30 13 1 12 14
M  V30 14 1 14 15
M  V30 15 1 15 16
M  V30 16 1 16 17
M  V30 17 2 17 18
M  V30 18 1 17 19
M  V30 19 1 18 20
M  V30 20 2 19 21
M  V30 21 2 20 22
M  V30 22 1 20 23
M  V30 23 1 24 23 CFG=1
M  V30 24 1 24 25
M  V30 25 1 24 26
M  V30 26 2 25 27
M  V30 27 1 25 28
M  V30 28 1 26 29 CFG=1
M  V30 29 1 28 30
M  V30 30 2 29 31
M  V30 31 1 29 32
M  V30 32 2 30 33
M  V30 33 1 30 34
M  V30 34 1 33 35
M  V30 35 2 34 36
M  V30 36 2 35 37
M  V30 37 1 37 38
M  V30 38 1 38 39
M  V30 39 1 38 40
M  V30 40 1 38 41
M  V30 41 1 6 8
M  V30 42 2 11 12
M  V30 43 1 21 22
M  V30 44 1 26 28
M  V30 45 1 36 37
M  V30 END BOND
M  V30 BEGIN COLLECTION
M  V30 MDLV30/STEABS ATOMS=(2 24 26)
M  V30 END COLLECTION
M  V30 END CTAB
M  END
>  <Molecule ChEMBL ID>
CHEMBL429734

>  <Smiles>
Cc1oc(-c2cccc(Cl)c2)nc1CCOc1cccc(C[C@@H]2C(=O)N(c3ccc(C(C)(C)C)cc3)[C@@H]2C(=O)O)c1

>  <IC50_nM>
250

>  <Assay Description>
Inhibition of PPARgamma

$$$$
CHEMBL121
Actelion Java MolfileCreator 2.0

  0  0  0  0  0  0              0 V3000
M  V30 BEGIN CTAB
M  V30 COUNTS 25 27 0 0 0
M  V30 BEGIN ATOM
M  V30 1 S 7.8987 0.0054 0.0 0
M  V30 2 C 8.8769 -0.2024 0.0 0
M  V30 3 C 7.7942 0.9999 0.0 0 CFG=2
M  V30 4 O 9.2836 -1.1159 0.0 0
M  V30 5 N 9.3769 0.6635 0.0 0
M  V30 6 C 8.7077 1.4067 0.0 0
M  V30 7 C 6.9282 1.4999 0.0 0
M  V30 8 O 8.9156 2.3848 0.0 0
M  V30 9 C 6.0621 0.9999 0.0 0
M  V30 10 C 5.1961 1.4999 0.0 0
M  V30 11 C 6.0621 0.0 0.0 0
M  V30 12 C 4.3301 0.9999 0.0 0
M  V30 13 C 5.1961 -0.5 0.0 0
M  V30 14 C 4.3301 0.0 0.0 0
M  V30 15 O 3.4641 -0.5 0.0 0
M  V30 16 C 2.598 0.0 0.0 0
M  V30 17 C 1.732 -0.5 0.0 0
M  V30 18 N 0.866 0.0 0.0 0
M  V30 19 C 0.866 1.0 0.0 0
M  V30 20 C 0.0 -0.5 0.0 0
M  V30 21 N 1.732 1.4999 0.0 0
M  V30 22 C 0.0 1.4999 0.0 0
M  V30 23 C 1.732 2.5 0.0 0
M  V30 24 C 0.0 2.5 0.0 0
M  V30 25 C 0.866 3.0 0.0 0
M  V30 END ATOM
M  V30 BEGIN BOND
M  V30 1 1 1 2
M  V30 2 1 1 3
M  V30 3 2 2 4
M  V30 4 1 2 5
M  V30 5 1 3 6
M  V30 6 1 3 7 CFG=1
M  V30 7 2 6 8
M  V30 8 1 7 9
M  V30 9 2 9 10
M  V30 10 1 9 11
M  V30 11 1 10 12
M  V30 12 2 11 13
M  V30 13 2 12 14
M  V30 14 1 14 15
M  V30 15 1 15 16
M  V30 16 1 16 17
M  V30 17 1 17 18
M  V30 18 1 18 19
M  V30 19 1 18 20
M  V30 20 2 19 21
M  V30 21 1 19 22
M  V30 22 1 21 23
M  V30 23 2 22 24
M  V30 24 2 23 25
M  V30 25 1 5 6
M  V30 26 1 13 14
M  V30 27 1 24 25
M  V30 END BOND
M  V30 BEGIN COLLECTION
M  V30 MDLV30/STERAC1 ATOMS=(1 3)
M  V30 END COLLECTION
M  V30 END CTAB
M  END
>  <Molecule ChEMBL ID>
CHEMBL121

>  <Smiles>
CN(CCOc1ccc(CC2SC(=O)NC2=O)cc1)c1ccccn1

>  <IC50_nM>
250

>  <Assay Description>
In vitro binding affinity against human peroxisome proliferator activated receptor gamma

$$$$
CHEMBL109638
Actelion Java MolfileCreator 2.0

  0  0  0  0  0  0              0 V3000
M  V30 BEGIN CTAB
M  V30 COUNTS 33 36 0 0 0
M  V30 BEGIN ATOM
M  V30 1 Cl 6.0621 1.0 0.0 0
M  V30 2 C 6.0621 0.0 0.0 0
M  V30 3 C 5.1961 -0.5 0.0 0
M  V30 4 C 6.9282 -0.4999 0.0 0
M  V30 5 O 4.3301 0.0 0.0 0
M  V30 6 C 5.1961 -1.4999 0.0 0
M  V30 7 C 6.9282 -1.4999 0.0 0
M  V30 8 C 3.4641 -0.5 0.0 0
M  V30 9 C 6.0621 -1.9999 0.0 0
M  V30 10 O 7.7942 -1.9999 0.0 0
M  V30 11 C 2.598 0.0 0.0 0
M  V30 12 C 8.6602 -1.4999 0.0 0
M  V30 13 C 1.732 -0.5 0.0 0
M  V30 14 C 9.5262 -1.9999 0.0 0
M  V30 15 C 8.6602 -0.4999 0.0 0
M  V30 16 O 0.866 0.0 0.0 0
M  V30 17 C 10.3923 -1.4999 0.0 0
M  V30 18 C 9.5262 0.0 0.0 0
M  V30 19 C 0.0 -0.5 0.0 0
M  V30 20 C 10.3923 -0.5 0.0 0
M  V30 21 C -0.866 0.0 0.0 0
M  V30 22 C 0.0 -1.4999 0.0 0
M  V30 23 C -1.732 -0.4999 0.0 0
M  V30 24 C -0.866 -1.9999 0.0 0
M  V30 25 O -2.598 0.0 0.0 0
M  V30 26 C -1.732 -1.4999 0.0 0
M  V30 27 C -3.4641 -0.4999 0.0 0 CFG=1
M  V30 28 C -2.598 -1.9999 0.0 0
M  V30 29 C -4.3301 0.0 0.0 0
M  V30 30 C -3.4641 -1.4999 0.0 0
M  V30 31 C -4.3301 -0.9999 0.0 0
M  V30 32 O -5.1961 -0.4999 0.0 0
M  V30 33 O -4.3301 1.0 0.0 0
M  V30 END ATOM
M  V30 BEGIN BOND
M  V30 1 1 1 2
M  V30 2 2 2 3
M  V30 3 1 2 4
M  V30 4 1 3 5
M  V30 5 1 3 6
M  V30 6 2 4 7
M  V30 7 1 5 8
M  V30 8 2 6 9
M  V30 9 1 7 10
M  V30 10 1 8 11
M  V30 11 1 10 12
M  V30 12 1 11 13
M  V30 13 2 12 14
M  V30 14 1 12 15
M  V30 15 1 13 16
M  V30 16 1 14 17
M  V30 17 2 15 18
M  V30 18 1 16 19
M  V30 19 2 17 20
M  V30 20 2 19 21
M  V30 21 1 19 22
M  V30 22 1 21 23
M  V30 23 2 22 24
M  V30 24 1 23 25
M  V30 25 2 23 26
M  V30 26 1 25 27
M  V30 27 1 26 28
M  V30 28 1 27 29
M  V30 29 1 27 30
M  V30 30 1 27 31 CFG=1
M  V30 31 2 29 32
M  V30 32 1 29 33
M  V30 33 1 7 9
M  V30 34 1 18 20
M  V30 35 1 24 26
M  V30 36 1 28 30
M  V30 END BOND
M  V30 BEGIN COLLECTION
M  V30 MDLV30/STEABS ATOMS=(1 27)
M  V30 END COLLECTION
M  V30 END CTAB
M  END
>  <Molecule ChEMBL ID>
CHEMBL109638

>  <Smiles>
C[C@]1(C(=O)O)CCc2ccc(OCCCOc3ccc(Oc4ccccc4)cc3Cl)cc2O1

>  <IC50_nM>
250

>  <Assay Description>
In vitro binding affinity for human peroxisome proliferator activated receptor gamma using scintillation proximity assay (SPA)

$$$$
CHEMBL121
Actelion Java MolfileCreator 2.0

  0  0  0  0  0  0              0 V3000
M  V30 BEGIN CTAB
M  V30 COUNTS 25 27 0 0 0
M  V30 BEGIN ATOM
M  V30 1 S 7.8987 0.0054 0.0 0
M  V30 2 C 8.8769 -0.2024 0.0 0
M  V30 3 C 7.7942 0.9999 0.0 0 CFG=2
M  V30 4 O 9.2836 -1.1159 0.0 0
M  V30 5 N 9.3769 0.6635 0.0 0
M  V30 6 C 8.7077 1.4067 0.0 0
M  V30 7 C 6.9282 1.4999 0.0 0
M  V30 8 O 8.9156 2.3848 0.0 0
M  V30 9 C 6.0621 0.9999 0.0 0
M  V30 10 C 5.1961 1.4999 0.0 0
M  V30 11 C 6.0621 0.0 0.0 0
M  V30 12 C 4.3301 0.9999 0.0 0
M  V30 13 C 5.1961 -0.5 0.0 0
M  V30 14 C 4.3301 0.0 0.0 0
M  V30 15 O 3.4641 -0.5 0.0 0
M  V30 16 C 2.598 0.0 0.0 0
M  V30 17 C 1.732 -0.5 0.0 0
M  V30 18 N 0.866 0.0 0.0 0
M  V30 19 C 0.866 1.0 0.0 0
M  V30 20 C 0.0 -0.5 0.0 0
M  V30 21 N 1.732 1.4999 0.0 0
M  V30 22 C 0.0 1.4999 0.0 0
M  V30 23 C 1.732 2.5 0.0 0
M  V30 24 C 0.0 2.5 0.0 0
M  V30 25 C 0.866 3.0 0.0 0
M  V30 END ATOM
M  V30 BEGIN BOND
M  V30 1 1 1 2
M  V30 2 1 1 3
M  V30 3 2 2 4
M  V30 4 1 2 5
M  V30 5 1 3 6
M  V30 6 1 3 7 CFG=1
M  V30 7 2 6 8
M  V30 8 1 7 9
M  V30 9 2 9 10
M  V30 10 1 9 11
M  V30 11 1 10 12
M  V30 12 2 11 13
M  V30 13 2 12 14
M  V30 14 1 14 15
M  V30 15 1 15 16
M  V30 16 1 16 17
M  V30 17 1 17 18
M  V30 18 1 18 19
M  V30 19 1 18 20
M  V30 20 2 19 21
M  V30 21 1 19 22
M  V30 22 1 21 23
M  V30 23 2 22 24
M  V30 24 2 23 25
M  V30 25 1 5 6
M  V30 26 1 13 14
M  V30 27 1 24 25
M  V30 END BOND
M  V30 BEGIN COLLECTION
M  V30 MDLV30/STERAC1 ATOMS=(1 3)
M  V30 END COLLECTION
M  V30 END CTAB
M  END
>  <Molecule ChEMBL ID>
CHEMBL121

>  <Smiles>
CN(CCOc1ccc(CC2SC(=O)NC2=O)cc1)c1ccccn1

>  <IC50_nM>
250

>  <Assay Description>
Inhibition of human peroxisome proliferator activated receptor gamma binding

$$$$
CHEMBL121
Actelion Java MolfileCreator 2.0

  0  0  0  0  0  0              0 V3000
M  V30 BEGIN CTAB
M  V30 COUNTS 25 27 0 0 0
M  V30 BEGIN ATOM
M  V30 1 S 7.8987 0.0054 0.0 0
M  V30 2 C 8.8769 -0.2024 0.0 0
M  V30 3 C 7.7942 0.9999 0.0 0 CFG=2
M  V30 4 O 9.2836 -1.1159 0.0 0
M  V30 5 N 9.3769 0.6635 0.0 0
M  V30 6 C 8.7077 1.4067 0.0 0
M  V30 7 C 6.9282 1.4999 0.0 0
M  V30 8 O 8.9156 2.3848 0.0 0
M  V30 9 C 6.0621 0.9999 0.0 0
M  V30 10 C 5.1961 1.4999 0.0 0
M  V30 11 C 6.0621 0.0 0.0 0
M  V30 12 C 4.3301 0.9999 0.0 0
M  V30 13 C 5.1961 -0.5 0.0 0
M  V30 14 C 4.3301 0.0 0.0 0
M  V30 15 O 3.4641 -0.5 0.0 0
M  V30 16 C 2.598 0.0 0.0 0
M  V30 17 C 1.732 -0.5 0.0 0
M  V30 18 N 0.866 0.0 0.0 0
M  V30 19 C 0.866 1.0 0.0 0
M  V30 20 C 0.0 -0.5 0.0 0
M  V30 21 N 1.732 1.4999 0.0 0
M  V30 22 C 0.0 1.4999 0.0 0
M  V30 23 C 1.732 2.5 0.0 0
M  V30 24 C 0.0 2.5 0.0 0
M  V30 25 C 0.866 3.0 0.0 0
M  V30 END ATOM
M  V30 BEGIN BOND
M  V30 1 1 1 2
M  V30 2 1 1 3
M  V30 3 2 2 4
M  V30 4 1 2 5
M  V30 5 1 3 6
M  V30 6 1 3 7 CFG=1
M  V30 7 2 6 8
M  V30 8 1 7 9
M  V30 9 2 9 10
M  V30 10 1 9 11
M  V30 11 1 10 12
M  V30 12 2 11 13
M  V30 13 2 12 14
M  V30 14 1 14 15
M  V30 15 1 15 16
M  V30 16 1 16 17
M  V30 17 1 17 18
M  V30 18 1 18 19
M  V30 19 1 18 20
M  V30 20 2 19 21
M  V30 21 1 19 22
M  V30 22 1 21 23
M  V30 23 2 22 24
M  V30 24 2 23 25
M  V30 25 1 5 6
M  V30 26 1 13 14
M  V30 27 1 24 25
M  V30 END BOND
M  V30 BEGIN COLLECTION
M  V30 MDLV30/STERAC1 ATOMS=(1 3)
M  V30 END COLLECTION
M  V30 END CTAB
M  END
>  <Molecule ChEMBL ID>
CHEMBL121

>  <Smiles>
CN(CCOc1ccc(CC2SC(=O)NC2=O)cc1)c1ccccn1

>  <IC50_nM>
250

>  <Assay Description>
Inhibition of human Peroxisome proliferator activated receptor gamma

$$$$
CHEMBL52633
Actelion Java MolfileCreator 2.0

  0  0  0  0  0  0              0 V3000
M  V30 BEGIN CTAB
M  V30 COUNTS 38 41 0 0 0
M  V30 BEGIN ATOM
M  V30 1 S 7.7942 -6.0 0.0 0
M  V30 2 O 6.7942 -6.0 0.0 0
M  V30 3 O 8.7942 -6.0 0.0 0
M  V30 4 C 7.7942 -5.0 0.0 0
M  V30 5 C 7.7942 -7.0 0.0 0
M  V30 6 C 8.6602 -4.5 0.0 0
M  V30 7 C 6.9282 -4.5 0.0 0
M  V30 8 C 8.6602 -3.5 0.0 0
M  V30 9 C 6.9282 -3.5 0.0 0
M  V30 10 C 7.7942 -3.0 0.0 0
M  V30 11 O 7.7942 -2.0 0.0 0
M  V30 12 C 6.9282 -1.5 0.0 0
M  V30 13 C 6.9282 -0.5 0.0 0
M  V30 14 C 6.0621 -2.0 0.0 0
M  V30 15 C 6.0621 0.0 0.0 0
M  V30 16 C 5.1961 -1.5 0.0 0
M  V30 17 C 5.1961 -0.5 0.0 0
M  V30 18 C 6.0621 0.9999 0.0 0
M  V30 19 O 4.3301 0.0 0.0 0
M  V30 20 C 6.9282 1.4999 0.0 0
M  V30 21 C 3.4641 -0.5 0.0 0
M  V30 22 C 6.9282 2.4999 0.0 0
M  V30 23 C 2.598 0.0 0.0 0
M  V30 24 C 1.732 -0.5 0.0 0
M  V30 25 O 0.866 0.0 0.0 0
M  V30 26 C 0.0 -0.5 0.0 0
M  V30 27 C -0.866 0.0 0.0 0
M  V30 28 C 0.0 -1.4999 0.0 0
M  V30 29 C -1.732 -0.4999 0.0 0
M  V30 30 C -0.866 -1.9999 0.0 0
M  V30 31 C -1.732 -1.4999 0.0 0
M  V30 32 C -2.598 -1.9999 0.0 0 CFG=1
M  V30 33 S -3.5116 -1.5932 0.0 0
M  V30 34 C -2.7026 -2.9945 0.0 0
M  V30 35 C -4.1807 -2.3364 0.0 0
M  V30 36 O -1.9594 -3.6636 0.0 0
M  V30 37 N -3.6807 -3.2024 0.0 0
M  V30 38 O -5.1752 -2.2318 0.0 0
M  V30 END ATOM
M  V30 BEGIN BOND
M  V30 1 2 1 2
M  V30 2 2 1 3
M  V30 3 1 1 4
M  V30 4 1 1 5
M  V30 5 2 4 6
M  V30 6 1 4 7
M  V30 7 1 6 8
M  V30 8 2 7 9
M  V30 9 2 8 10
M  V30 10 1 10 11
M  V30 11 1 11 12
M  V30 12 2 12 13
M  V30 13 1 12 14
M  V30 14 1 13 15
M  V30 15 2 14 16
M  V30 16 2 15 17
M  V30 17 1 15 18
M  V30 18 1 17 19
M  V30 19 1 18 20
M  V30 20 1 19 21
M  V30 21 1 20 22
M  V30 22 1 21 23
M  V30 23 1 23 24
M  V30 24 1 24 25
M  V30 25 1 25 26
M  V30 26 2 26 27
M  V30 27 1 26 28
M  V30 28 1 27 29
M  V30 29 2 28 30
M  V30 30 2 29 31
M  V30 31 1 32 31 CFG=3
M  V30 32 1 32 33
M  V30 33 1 32 34
M  V30 34 1 33 35
M  V30 35 2 34 36
M  V30 36 1 34 37
M  V30 37 2 35 38
M  V30 38 1 9 10
M  V30 39 1 16 17
M  V30 40 1 30 31
M  V30 41 1 35 37
M  V30 END BOND
M  V30 BEGIN COLLECTION
M  V30 MDLV30/STERAC1 ATOMS=(1 32)
M  V30 END COLLECTION
M  V30 END CTAB
M  END
>  <Molecule ChEMBL ID>
CHEMBL52633

>  <Smiles>
CCCc1cc(Oc2ccc(S(C)(=O)=O)cc2)ccc1OCCCOc1ccc(C2SC(=O)NC2=O)cc1

>  <IC50_nM>
250

>  <Assay Description>
In vitro binding affinity against human PPAR gamma (peroxisome proliferator-activated gamma receptor)

$$$$
CHEMBL186179
Actelion Java MolfileCreator 2.0

  0  0  0  0  0  0              0 V3000
M  V30 BEGIN CTAB
M  V30 COUNTS 38 41 0 0 0
M  V30 BEGIN ATOM
M  V30 1 O 3.4641 -1.5 0.0 0
M  V30 2 C 3.4641 -0.5 0.0 0
M  V30 3 O 4.3301 0.0 0.0 0
M  V30 4 N 2.598 0.0 0.0 0
M  V30 5 C 5.1961 -0.5 0.0 0
M  V30 6 C 2.598 1.0 0.0 0
M  V30 7 C 1.732 -0.5 0.0 0
M  V30 8 C 5.1961 -1.5 0.0 0
M  V30 9 C 6.0621 0.0 0.0 0
M  V30 10 C 1.732 1.5 0.0 0
M  V30 11 C 1.732 -1.5 0.0 0
M  V30 12 C 6.0621 -2.0 0.0 0
M  V30 13 C 6.9282 -0.5 0.0 0
M  V30 14 C 1.732 2.5 0.0 0
M  V30 15 C 0.866 1.0 0.0 0
M  V30 16 O 2.598 -2.0 0.0 0
M  V30 17 O 0.866 -2.0 0.0 0
M  V30 18 C 6.9282 -1.5 0.0 0
M  V30 19 C 0.866 3.0 0.0 0
M  V30 20 C 0.0 1.5 0.0 0
M  V30 21 O 7.7942 -2.0 0.0 0
M  V30 22 C 0.0 2.5 0.0 0
M  V30 23 C 8.6602 -1.5 0.0 0
M  V30 24 O -0.866 3.0 0.0 0
M  V30 25 C -1.732 2.5 0.0 0
M  V30 26 C -2.598 3.0 0.0 0
M  V30 27 C -3.4641 2.5 0.0 0
M  V30 28 N -4.3776 2.9067 0.0 0
M  V30 29 C -3.5686 1.5054 0.0 0
M  V30 30 C -5.0467 2.1635 0.0 0
M  V30 31 O -4.5467 1.2975 0.0 0
M  V30 32 C -2.8254 0.8363 0.0 0
M  V30 33 C -6.0412 2.2681 0.0 0
M  V30 34 C -6.448 3.1816 0.0 0
M  V30 35 C -6.629 1.4591 0.0 0
M  V30 36 C -7.4425 3.2861 0.0 0
M  V30 37 C -7.6236 1.5636 0.0 0
M  V30 38 C -8.0303 2.4771 0.0 0
M  V30 END ATOM
M  V30 BEGIN BOND
M  V30 1 2 1 2
M  V30 2 1 2 3
M  V30 3 1 2 4
M  V30 4 1 3 5
M  V30 5 1 4 6
M  V30 6 1 4 7
M  V30 7 2 5 8
M  V30 8 1 5 9
M  V30 9 1 6 10
M  V30 10 1 7 11
M  V30 11 1 8 12
M  V30 12 2 9 13
M  V30 13 2 10 14
M  V30 14 1 10 15
M  V30 15 2 11 16
M  V30 16 1 11 17
M  V30 17 2 12 18
M  V30 18 1 14 19
M  V30 19 2 15 20
M  V30 20 1 18 21
M  V30 21 2 19 22
M  V30 22 1 21 23
M  V30 23 1 22 24
M  V30 24 1 24 25
M  V30 25 1 25 26
M  V30 26 1 26 27
M  V30 27 1 27 28
M  V30 28 2 27 29
M  V30 29 2 28 30
M  V30 30 1 29 31
M  V30 31 1 29 32
M  V30 32 1 30 33
M  V30 33 2 33 34
M  V30 34 1 33 35
M  V30 35 1 34 36
M  V30 36 2 35 37
M  V30 37 2 36 38
M  V30 38 1 13 18
M  V30 39 1 20 22
M  V30 40 1 30 31
M  V30 41 1 37 38
M  V30 END BOND
M  V30 END CTAB
M  END
>  <Molecule ChEMBL ID>
CHEMBL186179

>  <Smiles>
COc1ccc(OC(=O)N(CC(=O)O)Cc2ccc(OCCc3nc(-c4ccccc4)oc3C)cc2)cc1

>  <IC50_nM>
250

>  <Assay Description>
Binding affinity at human PPARalpha by fluorescence polarization

$$$$
CHEMBL121
Actelion Java MolfileCreator 2.0

  0  0  0  0  0  0              0 V3000
M  V30 BEGIN CTAB
M  V30 COUNTS 25 27 0 0 0
M  V30 BEGIN ATOM
M  V30 1 S 7.8987 0.0054 0.0 0
M  V30 2 C 8.8769 -0.2024 0.0 0
M  V30 3 C 7.7942 0.9999 0.0 0 CFG=2
M  V30 4 O 9.2836 -1.1159 0.0 0
M  V30 5 N 9.3769 0.6635 0.0 0
M  V30 6 C 8.7077 1.4067 0.0 0
M  V30 7 C 6.9282 1.4999 0.0 0
M  V30 8 O 8.9156 2.3848 0.0 0
M  V30 9 C 6.0621 0.9999 0.0 0
M  V30 10 C 5.1961 1.4999 0.0 0
M  V30 11 C 6.0621 0.0 0.0 0
M  V30 12 C 4.3301 0.9999 0.0 0
M  V30 13 C 5.1961 -0.5 0.0 0
M  V30 14 C 4.3301 0.0 0.0 0
M  V30 15 O 3.4641 -0.5 0.0 0
M  V30 16 C 2.598 0.0 0.0 0
M  V30 17 C 1.732 -0.5 0.0 0
M  V30 18 N 0.866 0.0 0.0 0
M  V30 19 C 0.866 1.0 0.0 0
M  V30 20 C 0.0 -0.5 0.0 0
M  V30 21 N 1.732 1.4999 0.0 0
M  V30 22 C 0.0 1.4999 0.0 0
M  V30 23 C 1.732 2.5 0.0 0
M  V30 24 C 0.0 2.5 0.0 0
M  V30 25 C 0.866 3.0 0.0 0
M  V30 END ATOM
M  V30 BEGIN BOND
M  V30 1 1 1 2
M  V30 2 1 1 3
M  V30 3 2 2 4
M  V30 4 1 2 5
M  V30 5 1 3 6
M  V30 6 1 3 7 CFG=1
M  V30 7 2 6 8
M  V30 8 1 7 9
M  V30 9 2 9 10
M  V30 10 1 9 11
M  V30 11 1 10 12
M  V30 12 2 11 13
M  V30 13 2 12 14
M  V30 14 1 14 15
M  V30 15 1 15 16
M  V30 16 1 16 17
M  V30 17 1 17 18
M  V30 18 1 18 19
M  V30 19 1 18 20
M  V30 20 2 19 21
M  V30 21 1 19 22
M  V30 22 1 21 23
M  V30 23 2 22 24
M  V30 24 2 23 25
M  V30 25 1 5 6
M  V30 26 1 13 14
M  V30 27 1 24 25
M  V30 END BOND
M  V30 BEGIN COLLECTION
M  V30 MDLV30/STERAC1 ATOMS=(1 3)
M  V30 END COLLECTION
M  V30 END CTAB
M  END
>  <Molecule ChEMBL ID>
CHEMBL121

>  <Smiles>
CN(CCOc1ccc(CC2SC(=O)NC2=O)cc1)c1ccccn1

>  <IC50_nM>
250

>  <Assay Description>
Displacement of [3H2]nTZD3 from GST-tagged human recombinant PPARgamma by scintillation proximity assay

$$$$
CHEMBL121
Actelion Java MolfileCreator 2.0

  0  0  0  0  0  0              0 V3000
M  V30 BEGIN CTAB
M  V30 COUNTS 25 27 0 0 0
M  V30 BEGIN ATOM
M  V30 1 S 7.8987 0.0054 0.0 0
M  V30 2 C 8.8769 -0.2024 0.0 0
M  V30 3 C 7.7942 0.9999 0.0 0 CFG=2
M  V30 4 O 9.2836 -1.1159 0.0 0
M  V30 5 N 9.3769 0.6635 0.0 0
M  V30 6 C 8.7077 1.4067 0.0 0
M  V30 7 C 6.9282 1.4999 0.0 0
M  V30 8 O 8.9156 2.3848 0.0 0
M  V30 9 C 6.0621 0.9999 0.0 0
M  V30 10 C 5.1961 1.4999 0.0 0
M  V30 11 C 6.0621 0.0 0.0 0
M  V30 12 C 4.3301 0.9999 0.0 0
M  V30 13 C 5.1961 -0.5 0.0 0
M  V30 14 C 4.3301 0.0 0.0 0
M  V30 15 O 3.4641 -0.5 0.0 0
M  V30 16 C 2.598 0.0 0.0 0
M  V30 17 C 1.732 -0.5 0.0 0
M  V30 18 N 0.866 0.0 0.0 0
M  V30 19 C 0.866 1.0 0.0 0
M  V30 20 C 0.0 -0.5 0.0 0
M  V30 21 N 1.732 1.4999 0.0 0
M  V30 22 C 0.0 1.4999 0.0 0
M  V30 23 C 1.732 2.5 0.0 0
M  V30 24 C 0.0 2.5 0.0 0
M  V30 25 C 0.866 3.0 0.0 0
M  V30 END ATOM
M  V30 BEGIN BOND
M  V30 1 1 1 2
M  V30 2 1 1 3
M  V30 3 2 2 4
M  V30 4 1 2 5
M  V30 5 1 3 6
M  V30 6 1 3 7 CFG=1
M  V30 7 2 6 8
M  V30 8 1 7 9
M  V30 9 2 9 10
M  V30 10 1 9 11
M  V30 11 1 10 12
M  V30 12 2 11 13
M  V30 13 2 12 14
M  V30 14 1 14 15
M  V30 15 1 15 16
M  V30 16 1 16 17
M  V30 17 1 17 18
M  V30 18 1 18 19
M  V30 19 1 18 20
M  V30 20 2 19 21
M  V30 21 1 19 22
M  V30 22 1 21 23
M  V30 23 2 22 24
M  V30 24 2 23 25
M  V30 25 1 5 6
M  V30 26 1 13 14
M  V30 27 1 24 25
M  V30 END BOND
M  V30 BEGIN COLLECTION
M  V30 MDLV30/STERAC1 ATOMS=(1 3)
M  V30 END COLLECTION
M  V30 END CTAB
M  END
>  <Molecule ChEMBL ID>
CHEMBL121

>  <Smiles>
CN(CCOc1ccc(CC2SC(=O)NC2=O)cc1)c1ccccn1

>  <IC50_nM>
250

>  <Assay Description>
In vitro binding affinity against human PPAR gamma (peroxisome proliferator-activated gamma receptor)

$$$$
CHEMBL121
Actelion Java MolfileCreator 2.0

  0  0  0  0  0  0              0 V3000
M  V30 BEGIN CTAB
M  V30 COUNTS 25 27 0 0 0
M  V30 BEGIN ATOM
M  V30 1 S 7.8987 0.0054 0.0 0
M  V30 2 C 8.8769 -0.2024 0.0 0
M  V30 3 C 7.7942 0.9999 0.0 0 CFG=2
M  V30 4 O 9.2836 -1.1159 0.0 0
M  V30 5 N 9.3769 0.6635 0.0 0
M  V30 6 C 8.7077 1.4067 0.0 0
M  V30 7 C 6.9282 1.4999 0.0 0
M  V30 8 O 8.9156 2.3848 0.0 0
M  V30 9 C 6.0621 0.9999 0.0 0
M  V30 10 C 5.1961 1.4999 0.0 0
M  V30 11 C 6.0621 0.0 0.0 0
M  V30 12 C 4.3301 0.9999 0.0 0
M  V30 13 C 5.1961 -0.5 0.0 0
M  V30 14 C 4.3301 0.0 0.0 0
M  V30 15 O 3.4641 -0.5 0.0 0
M  V30 16 C 2.598 0.0 0.0 0
M  V30 17 C 1.732 -0.5 0.0 0
M  V30 18 N 0.866 0.0 0.0 0
M  V30 19 C 0.866 1.0 0.0 0
M  V30 20 C 0.0 -0.5 0.0 0
M  V30 21 N 1.732 1.4999 0.0 0
M  V30 22 C 0.0 1.4999 0.0 0
M  V30 23 C 1.732 2.5 0.0 0
M  V30 24 C 0.0 2.5 0.0 0
M  V30 25 C 0.866 3.0 0.0 0
M  V30 END ATOM
M  V30 BEGIN BOND
M  V30 1 1 1 2
M  V30 2 1 1 3
M  V30 3 2 2 4
M  V30 4 1 2 5
M  V30 5 1 3 6
M  V30 6 1 3 7 CFG=1
M  V30 7 2 6 8
M  V30 8 1 7 9
M  V30 9 2 9 10
M  V30 10 1 9 11
M  V30 11 1 10 12
M  V30 12 2 11 13
M  V30 13 2 12 14
M  V30 14 1 14 15
M  V30 15 1 15 16
M  V30 16 1 16 17
M  V30 17 1 17 18
M  V30 18 1 18 19
M  V30 19 1 18 20
M  V30 20 2 19 21
M  V30 21 1 19 22
M  V30 22 1 21 23
M  V30 23 2 22 24
M  V30 24 2 23 25
M  V30 25 1 5 6
M  V30 26 1 13 14
M  V30 27 1 24 25
M  V30 END BOND
M  V30 BEGIN COLLECTION
M  V30 MDLV30/STERAC1 ATOMS=(1 3)
M  V30 END COLLECTION
M  V30 END CTAB
M  END
>  <Molecule ChEMBL ID>
CHEMBL121

>  <Smiles>
CN(CCOc1ccc(CC2SC(=O)NC2=O)cc1)c1ccccn1

>  <IC50_nM>
250

>  <Assay Description>
Inhibition of human Peroxisome proliferator activated receptor gamma binding

$$$$
CHEMBL426105
Actelion Java MolfileCreator 2.0

  0  0  0  0  0  0              0 V3000
M  V30 BEGIN CTAB
M  V30 COUNTS 38 42 0 0 0
M  V30 BEGIN ATOM
M  V30 1 F 6.733 -3.7092 0.0 0
M  V30 2 C 5.8195 -4.1159 0.0 0
M  V30 3 F 6.2262 -5.0295 0.0 0
M  V30 4 F 4.9059 -4.5227 0.0 0
M  V30 5 C 5.4128 -3.2024 0.0 0
M  V30 6 C 5.9128 -2.3364 0.0 0
M  V30 7 C 4.4346 -2.9945 0.0 0
M  V30 8 N 5.2436 -1.5932 0.0 0
M  V30 9 C 4.3301 -2.0 0.0 0
M  V30 10 C 3.4641 -1.4999 0.0 0
M  V30 11 C 3.4641 -0.5 0.0 0
M  V30 12 C 2.598 -1.9999 0.0 0
M  V30 13 C 2.598 0.0 0.0 0
M  V30 14 C 1.732 -1.5 0.0 0
M  V30 15 C 1.732 -0.5 0.0 0
M  V30 16 O 0.866 0.0 0.0 0
M  V30 17 C 0.0 -0.5 0.0 0
M  V30 18 C -0.9135 -0.0932 0.0 0
M  V30 19 C -0.1045 -1.4945 0.0 0
M  V30 20 N -1.5826 -0.8364 0.0 0
M  V30 21 C -1.1214 0.8848 0.0 0
M  V30 22 C -1.0826 -1.7024 0.0 0
M  V30 23 C 0.5646 -2.2376 0.0 0
M  V30 24 C -2.5771 -0.7318 0.0 0
M  V30 25 O -0.3783 1.554 0.0 0
M  V30 26 O -2.0725 1.1939 0.0 0
M  V30 27 N -1.3916 -2.6534 0.0 0
M  V30 28 C 0.2555 -3.1887 0.0 0
M  V30 29 C -2.9839 0.1816 0.0 0
M  V30 30 C -3.1649 -1.5408 0.0 0
M  V30 31 C -0.7225 -3.3966 0.0 0
M  V30 32 C -3.9784 0.2861 0.0 0
M  V30 33 C -4.1595 -1.4363 0.0 0
M  V30 34 C -4.5662 -0.5228 0.0 0
M  V30 35 C -5.5607 -0.4182 0.0 0
M  V30 36 C -5.6652 -1.4128 0.0 0
M  V30 37 C -6.5552 -0.3137 0.0 0
M  V30 38 C -5.4562 0.5762 0.0 0
M  V30 END ATOM
M  V30 BEGIN BOND
M  V30 1 1 1 2
M  V30 2 1 2 3
M  V30 3 1 2 4
M  V30 4 1 2 5
M  V30 5 2 5 6
M  V30 6 1 5 7
M  V30 7 1 6 8
M  V30 8 2 7 9
M  V30 9 1 9 10
M  V30 10 2 10 11
M  V30 11 1 10 12
M  V30 12 1 11 13
M  V30 13 2 12 14
M  V30 14 2 13 15
M  V30 15 1 15 16
M  V30 16 1 16 17
M  V30 17 2 17 18
M  V30 18 1 17 19
M  V30 19 1 18 20
M  V30 20 1 18 21
M  V30 21 2 19 22
M  V30 22 1 19 23
M  V30 23 1 20 24
M  V30 24 2 21 25
M  V30 25 1 21 26
M  V30 26 1 22 27
M  V30 27 2 23 28
M  V30 28 2 24 29
M  V30 29 1 24 30
M  V30 30 2 27 31
M  V30 31 1 29 32
M  V30 32 2 30 33
M  V30 33 2 32 34
M  V30 34 1 34 35
M  V30 35 1 35 36
M  V30 36 1 35 37
M  V30 37 1 35 38
M  V30 38 1 8 9
M  V30 39 1 14 15
M  V30 40 1 20 22
M  V30 41 1 28 31
M  V30 42 1 33 34
M  V30 END BOND
M  V30 END CTAB
M  END
>  <Molecule ChEMBL ID>
CHEMBL426105

>  <Smiles>
CC(C)(C)c1ccc(-n2c(C(=O)O)c(Oc3ccc(-c4cc(C(F)(F)F)c[nH]4)cc3)c3cccnc32)cc1

>  <IC50_nM>
251

>  <Assay Description>
Inhibitory concentration against human peroxisome proliferator activated receptor gamma in SPA assay

$$$$
CHEMBL209749
Actelion Java MolfileCreator 2.0

  0  0  0  0  0  0              0 V3000
M  V30 BEGIN CTAB
M  V30 COUNTS 31 34 0 0 0
M  V30 BEGIN ATOM
M  V30 1 Cl 11.5276 3.4744 0.0 0
M  V30 2 C 11.6321 2.4799 0.0 0
M  V30 3 C 10.8231 1.8921 0.0 0
M  V30 4 C 12.5456 2.0731 0.0 0
M  V30 5 C 9.9095 2.2988 0.0 0
M  V30 6 C 10.9276 0.8975 0.0 0
M  V30 7 C 12.6502 1.0786 0.0 0
M  V30 8 O 9.7016 3.277 0.0 0
M  V30 9 N 9.0435 1.7988 0.0 0
M  V30 10 C 11.8411 0.4908 0.0 0
M  V30 11 C 8.7071 3.3815 0.0 0
M  V30 12 C 8.3003 2.4679 0.0 0
M  V30 13 C 8.2071 4.2475 0.0 0
M  V30 14 C 7.3222 2.26 0.0 0
M  V30 15 N 7.0132 1.309 0.0 0
M  V30 16 C 6.0621 0.9999 0.0 0
M  V30 17 C 7.601 0.5 0.0 0
M  V30 18 C 6.0621 0.0 0.0 0
M  V30 19 C 5.1961 1.4999 0.0 0
M  V30 20 C 7.0132 -0.309 0.0 0
M  V30 21 C 5.1961 -0.5 0.0 0
M  V30 22 C 4.3301 0.9999 0.0 0
M  V30 23 C 4.3301 0.0 0.0 0
M  V30 24 C 3.4641 -0.5 0.0 0
M  V30 25 C 2.598 0.0 0.0 0 CFG=2
M  V30 26 O 1.732 -0.5 0.0 0
M  V30 27 C 2.598 1.0 0.0 0
M  V30 28 C 0.866 0.0 0.0 0
M  V30 29 O 3.4641 1.4999 0.0 0
M  V30 30 O 1.732 1.5 0.0 0
M  V30 31 C 0.0 -0.5 0.0 0
M  V30 END ATOM
M  V30 BEGIN BOND
M  V30 1 1 1 2
M  V30 2 2 2 3
M  V30 3 1 2 4
M  V30 4 1 3 5
M  V30 5 1 3 6
M  V30 6 2 4 7
M  V30 7 1 5 8
M  V30 8 2 5 9
M  V30 9 2 6 10
M  V30 10 1 8 11
M  V30 11 1 9 12
M  V30 12 1 11 13
M  V30 13 1 12 14
M  V30 14 1 14 15
M  V30 15 1 15 16
M  V30 16 1 15 17
M  V30 17 2 16 18
M  V30 18 1 16 19
M  V30 19 2 17 20
M  V30 20 1 18 21
M  V30 21 2 19 22
M  V30 22 2 21 23
M  V30 23 1 23 24
M  V30 24 1 24 25
M  V30 25 1 25 26 CFG=3
M  V30 26 1 25 27
M  V30 27 1 26 28
M  V30 28 2 27 29
M  V30 29 1 27 30
M  V30 30 1 28 31
M  V30 31 1 7 10
M  V30 32 2 11 12
M  V30 33 1 18 20
M  V30 34 1 22 23
M  V30 END BOND
M  V30 BEGIN COLLECTION
M  V30 MDLV30/STERAC1 ATOMS=(1 25)
M  V30 END COLLECTION
M  V30 END CTAB
M  END
>  <Molecule ChEMBL ID>
CHEMBL209749

>  <Smiles>
CCOC(Cc1ccc2c(ccn2Cc2nc(-c3ccccc3Cl)oc2C)c1)C(=O)O

>  <IC50_nM>
251

>  <Assay Description>
Binding affinity to PPARgamma by radio ligand binding assay

$$$$
CHEMBL479002
Actelion Java MolfileCreator 2.0

  0  0  0  0  0  0              0 V3000
M  V30 BEGIN CTAB
M  V30 COUNTS 31 34 0 0 0
M  V30 BEGIN ATOM
M  V30 1 O 6.9282 -4.5 0.0 0
M  V30 2 C 6.9282 -3.5 0.0 0
M  V30 3 O 7.7942 -3.0 0.0 0
M  V30 4 C 6.0621 -3.0 0.0 0 CFG=1
M  V30 5 N 5.1961 -3.5 0.0 0
M  V30 6 C 6.0621 -1.9999 0.0 0
M  V30 7 C 4.2826 -3.0932 0.0 0
M  V30 8 C 5.0916 -4.4945 0.0 0
M  V30 9 C 5.1961 -1.4999 0.0 0
M  V30 10 C 3.6134 -3.8364 0.0 0
M  V30 11 C 4.1134 -4.7024 0.0 0
M  V30 12 C 5.1961 -0.5 0.0 0
M  V30 13 C 4.3301 -1.9999 0.0 0
M  V30 14 C 4.3301 0.0 0.0 0
M  V30 15 C 3.4641 -1.5 0.0 0
M  V30 16 C 3.4641 -0.5 0.0 0
M  V30 17 C 2.598 0.0 0.0 0
M  V30 18 C 1.732 -0.5 0.0 0
M  V30 19 C 0.866 0.0 0.0 0
M  V30 20 C 0.0 -0.5 0.0 0
M  V30 21 N -0.9135 -0.0932 0.0 0
M  V30 22 C -0.1045 -1.4945 0.0 0
M  V30 23 C -1.5826 -0.8364 0.0 0
M  V30 24 O -1.0826 -1.7024 0.0 0
M  V30 25 C 0.6386 -2.1636 0.0 0
M  V30 26 C -2.5771 -0.7318 0.0 0
M  V30 27 C -2.9839 0.1816 0.0 0
M  V30 28 C -3.1649 -1.5408 0.0 0
M  V30 29 C -3.9784 0.2861 0.0 0
M  V30 30 C -4.1595 -1.4363 0.0 0
M  V30 31 C -4.5662 -0.5228 0.0 0
M  V30 END ATOM
M  V30 BEGIN BOND
M  V30 1 2 1 2
M  V30 2 1 2 3
M  V30 3 1 2 4
M  V30 4 1 4 5 CFG=1
M  V30 5 1 4 6
M  V30 6 1 5 7
M  V30 7 1 5 8
M  V30 8 1 6 9
M  V30 9 2 7 10
M  V30 10 2 8 11
M  V30 11 2 9 12
M  V30 12 1 9 13
M  V30 13 1 12 14
M  V30 14 2 13 15
M  V30 15 2 14 16
M  V30 16 1 16 17
M  V30 17 2 17 18
M  V30 18 1 18 19
M  V30 19 1 19 20
M  V30 20 1 20 21
M  V30 21 2 20 22
M  V30 22 2 21 23
M  V30 23 1 22 24
M  V30 24 1 22 25
M  V30 25 1 23 26
M  V30 26 2 26 27
M  V30 27 1 26 28
M  V30 28 1 27 29
M  V30 29 2 28 30
M  V30 30 2 29 31
M  V30 31 1 10 11
M  V30 32 1 15 16
M  V30 33 1 23 24
M  V30 34 1 30 31
M  V30 END BOND
M  V30 BEGIN COLLECTION
M  V30 MDLV30/STEABS ATOMS=(1 4)
M  V30 END COLLECTION
M  V30 END CTAB
M  END
>  <Molecule ChEMBL ID>
CHEMBL479002

>  <Smiles>
Cc1oc(-c2ccccc2)nc1C/C=C/c1ccc(C[C@@H](C(=O)O)n2cccc2)cc1

>  <IC50_nM>
255

>  <Assay Description>
Displacement of [3H]darglitazone from human PPARgamma by scintillation proximity assay

$$$$
CHEMBL257345
Actelion Java MolfileCreator 2.0

  0  0  0  0  0  0              0 V3000
M  V30 BEGIN CTAB
M  V30 COUNTS 39 42 0 0 0
M  V30 BEGIN ATOM
M  V30 1 O 4.3301 0.0 0.0 0
M  V30 2 C 3.4641 -0.5 0.0 0
M  V30 3 O 2.598 0.0 0.0 0
M  V30 4 N 3.4641 -1.5 0.0 0
M  V30 5 C 1.732 -0.5 0.0 0
M  V30 6 C 2.598 -2.0 0.0 0
M  V30 7 C 4.3301 -2.0 0.0 0
M  V30 8 C 0.866 0.0 0.0 0
M  V30 9 C 2.598 -3.0 0.0 0
M  V30 10 C 4.3301 -3.0 0.0 0
M  V30 11 C 0.866 1.0 0.0 0
M  V30 12 C 0.0 -0.5 0.0 0
M  V30 13 C 3.4641 -3.5 0.0 0
M  V30 14 C 1.732 -3.5 0.0 0
M  V30 15 C 3.4641 -4.5 0.0 0
M  V30 16 C 0.866 -3.0 0.0 0
M  V30 17 O 2.598 -5.0 0.0 0
M  V30 18 O 4.3301 -5.0 0.0 0
M  V30 19 C 0.0 -3.5 0.0 0
M  V30 20 C -0.866 -2.9999 0.0 0
M  V30 21 C 0.0 -4.5 0.0 0
M  V30 22 C -1.732 -3.5 0.0 0
M  V30 23 C -0.866 -5.0 0.0 0
M  V30 24 C -1.732 -4.5 0.0 0
M  V30 25 O -2.598 -5.0 0.0 0
M  V30 26 C -2.598 -6.0 0.0 0
M  V30 27 C -3.4641 -6.5 0.0 0
M  V30 28 C -3.4641 -7.5 0.0 0
M  V30 29 N -4.2731 -8.0877 0.0 0
M  V30 30 C -2.655 -8.0877 0.0 0
M  V30 31 C -3.9641 -9.0388 0.0 0
M  V30 32 O -2.9641 -9.0388 0.0 0
M  V30 33 C -1.704 -7.7787 0.0 0
M  V30 34 C -4.5518 -9.8478 0.0 0
M  V30 35 C -5.5464 -9.7433 0.0 0
M  V30 36 C -4.1451 -10.7614 0.0 0
M  V30 37 C -6.1341 -10.5523 0.0 0
M  V30 38 C -4.7329 -11.5704 0.0 0
M  V30 39 C -5.7274 -11.4658 0.0 0
M  V30 END ATOM
M  V30 BEGIN BOND
M  V30 1 2 1 2
M  V30 2 1 2 3
M  V30 3 1 2 4
M  V30 4 1 3 5
M  V30 5 1 4 6
M  V30 6 1 4 7
M  V30 7 1 5 8
M  V30 8 1 6 9
M  V30 9 1 7 10
M  V30 10 1 8 11
M  V30 11 1 8 12
M  V30 12 2 9 13
M  V30 13 1 9 14
M  V30 14 1 13 15
M  V30 15 1 14 16
M  V30 16 2 15 17
M  V30 17 1 15 18
M  V30 18 1 16 19
M  V30 19 2 19 20
M  V30 20 1 19 21
M  V30 21 1 20 22
M  V30 22 2 21 23
M  V30 23 2 22 24
M  V30 24 1 24 25
M  V30 25 1 25 26
M  V30 26 1 26 27
M  V30 27 1 27 28
M  V30 28 1 28 29
M  V30 29 2 28 30
M  V30 30 2 29 31
M  V30 31 1 30 32
M  V30 32 1 30 33
M  V30 33 1 31 34
M  V30 34 2 34 35
M  V30 35 1 34 36
M  V30 36 1 35 37
M  V30 37 2 36 38
M  V30 38 2 37 39
M  V30 39 1 10 13
M  V30 40 1 23 24
M  V30 41 1 31 32
M  V30 42 1 38 39
M  V30 END BOND
M  V30 END CTAB
M  END
>  <Molecule ChEMBL ID>
CHEMBL257345

>  <Smiles>
Cc1oc(-c2ccccc2)nc1CCOc1ccc(CCC2=C(C(=O)O)CCN(C(=O)OCC(C)C)C2)cc1

>  <IC50_nM>
255

>  <Assay Description>
Binding affinity at human PPARalpha by fluorescence polarization

$$$$
CHEMBL3678148
Actelion Java MolfileCreator 2.0

  0  0  0  0  0  0              0 V3000
M  V30 BEGIN CTAB
M  V30 COUNTS 40 43 0 0 0
M  V30 BEGIN ATOM
M  V30 1 O 2.2676 3.6093 0.0 0
M  V30 2 C 3.2457 3.8172 0.0 0
M  V30 3 N 3.5547 4.7682 0.0 0
M  V30 4 C 3.9148 3.074 0.0 0
M  V30 5 C 2.8856 5.5114 0.0 0 CFG=2
M  V30 6 C 4.893 3.2819 0.0 0
M  V30 7 C 3.6058 2.123 0.0 0
M  V30 8 C 1.9075 5.3035 0.0 0
M  V30 9 C 3.1946 6.4624 0.0 0
M  V30 10 C 5.5621 2.5388 0.0 0
M  V30 11 C 4.275 1.3798 0.0 0
M  V30 12 C 1.5984 4.3524 0.0 0
M  V30 13 C 1.2383 6.0466 0.0 0
M  V30 14 C 5.2531 1.5877 0.0 0
M  V30 15 C 6.5621 2.5388 0.0 0
M  V30 16 C 0.6203 4.1445 0.0 0
M  V30 17 C 0.2602 5.8387 0.0 0
M  V30 18 N 6.0621 1.0 0.0 0
M  V30 19 C 6.8711 1.5877 0.0 0
M  V30 20 C 7.1499 3.3478 0.0 0
M  V30 21 C -0.0487 4.8876 0.0 0
M  V30 22 C 6.0621 0.0 0.0 0
M  V30 23 C 7.8222 1.2787 0.0 0
M  V30 24 C -1.0269 4.6797 0.0 0
M  V30 25 C 6.9282 -0.5 0.0 0
M  V30 26 C 5.1961 -0.5 0.0 0
M  V30 27 C -1.2348 5.6579 0.0 0
M  V30 28 C -2.005 4.4718 0.0 0
M  V30 29 C -0.819 3.7016 0.0 0
M  V30 30 C 7.7942 0.0 0.0 0
M  V30 31 C 6.9282 -1.4999 0.0 0
M  V30 32 C 8.6602 -0.5 0.0 0
M  V30 33 C 7.7942 -1.9999 0.0 0
M  V30 34 O 9.5262 0.0 0.0 0
M  V30 35 C 8.6602 -1.4999 0.0 0
M  V30 36 C 10.3923 -0.4999 0.0 0 CFG=2
M  V30 37 C 11.2583 0.0 0.0 0
M  V30 38 C 10.3923 -1.5 0.0 0
M  V30 39 O 11.2583 1.0 0.0 0
M  V30 40 O 12.1243 -0.5 0.0 0
M  V30 END ATOM
M  V30 BEGIN BOND
M  V30 1 2 1 2
M  V30 2 1 2 3
M  V30 3 1 2 4
M  V30 4 1 3 5
M  V30 5 2 4 6
M  V30 6 1 4 7
M  V30 7 1 5 8
M  V30 8 1 5 9 CFG=3
M  V30 9 1 6 10
M  V30 10 2 7 11
M  V30 11 2 8 12
M  V30 12 1 8 13
M  V30 13 2 10 14
M  V30 14 1 10 15
M  V30 15 1 12 16
M  V30 16 2 13 17
M  V30 17 1 14 18
M  V30 18 2 15 19
M  V30 19 1 15 20
M  V30 20 2 16 21
M  V30 21 1 18 22
M  V30 22 1 19 23
M  V30 23 1 21 24
M  V30 24 1 22 25
M  V30 25 1 22 26
M  V30 26 1 24 27
M  V30 27 1 24 28
M  V30 28 1 24 29
M  V30 29 2 25 30
M  V30 30 1 25 31
M  V30 31 1 30 32
M  V30 32 2 31 33
M  V30 33 1 32 34
M  V30 34 2 32 35
M  V30 35 1 34 36
M  V30 36 1 36 37
M  V30 37 1 36 38 CFG=3
M  V30 38 2 37 39
M  V30 39 1 37 40
M  V30 40 1 11 14
M  V30 41 1 17 21
M  V30 42 1 18 19
M  V30 43 1 33 35
M  V30 END BOND
M  V30 BEGIN COLLECTION
M  V30 MDLV30/STEABS ATOMS=(2 5 36)
M  V30 END COLLECTION
M  V30 END CTAB
M  END
>  <Molecule ChEMBL ID>
CHEMBL3678148

>  <Smiles>
Cc1c(C)n(C(C)c2cccc(O[C@@H](C)C(=O)O)c2)c2ccc(C(=O)N[C@@H](C)c3ccc(C(C)(C)C)cc3)cc12

>  <IC50_nM>
255

>  <Assay Description>
Lanthascreen Competitive Binding Assay: The assay was performed according to manufacturer protocol. A mixture of 5 nM GST-PPARG-LBD, 5 nM Tb-GST-antibody, 5 nM Fluormone Pan- PPAR Green, and serial dilutions of the experimental compound, beginning at 10 ׬� downwards, was added to wells of black 384-well low- volume plates (Greiner) to a total volume of 18 xL. All dilutions were made in TR-FRET assay buffer C. DMSO at 2% final concentration was used as a no-ligand control. Experiment was performed in triplicate, and incubated for 2 hours in the dark prior to assay read in Perkin Elmer ViewLux ultra HTS microplate reader. FRET signal was measured by excitation at 340 nm and emission at 520 nm for fluorescein and 490 nm for terbium.

$$$$
CHEMBL1946567
Actelion Java MolfileCreator 2.0

  0  0  0  0  0  0              0 V3000
M  V30 BEGIN CTAB
M  V30 COUNTS 37 40 0 0 0
M  V30 BEGIN ATOM
M  V30 1 Cl 4.3301 0.9999 0.0 0
M  V30 2 C 4.3301 0.0 0.0 0
M  V30 3 C 3.4641 -0.5 0.0 0
M  V30 4 C 5.1961 -0.5 0.0 0
M  V30 5 O 2.598 0.0 0.0 0
M  V30 6 C 3.4641 -1.5 0.0 0
M  V30 7 C 5.1961 -1.5 0.0 0
M  V30 8 C 1.732 -0.5 0.0 0 CFG=1
M  V30 9 C 4.3301 -2.0 0.0 0
M  V30 10 C 0.866 0.0 0.0 0
M  V30 11 C 1.732 -1.5 0.0 0
M  V30 12 C 4.3301 -3.0 0.0 0
M  V30 13 O 0.866 1.0 0.0 0
M  V30 14 O 0.0 -0.5 0.0 0
M  V30 15 N 5.1961 -3.5 0.0 0
M  V30 16 C 5.3006 -4.4945 0.0 0
M  V30 17 C 6.1096 -3.0932 0.0 0
M  V30 18 O 4.5575 -5.1636 0.0 0
M  V30 19 N 6.2788 -4.7024 0.0 0
M  V30 20 C 6.7788 -3.8364 0.0 0
M  V30 21 C 6.4187 -2.1422 0.0 0
M  V30 22 C 6.6855 -5.6159 0.0 0
M  V30 23 C 7.7569 -3.6284 0.0 0
M  V30 24 C 7.3968 -1.9342 0.0 0
M  V30 25 O 6.0977 -6.4249 0.0 0
M  V30 26 C 7.68 -5.7205 0.0 0
M  V30 27 C 8.0659 -2.6774 0.0 0
M  V30 28 C 7.7058 -0.9832 0.0 0
M  V30 29 C 8.0868 -6.634 0.0 0
M  V30 30 C 8.2678 -4.9114 0.0 0
M  V30 31 F 6.7548 -0.6742 0.0 0
M  V30 32 F 8.0148 -0.0321 0.0 0
M  V30 33 F 8.6569 -1.2922 0.0 0
M  V30 34 C 9.0813 -6.7385 0.0 0
M  V30 35 C 9.2623 -5.016 0.0 0
M  V30 36 C 9.6691 -5.9295 0.0 0
M  V30 37 Cl 10.6636 -6.034 0.0 0
M  V30 END ATOM
M  V30 BEGIN BOND
M  V30 1 1 1 2
M  V30 2 2 2 3
M  V30 3 1 2 4
M  V30 4 1 3 5
M  V30 5 1 3 6
M  V30 6 2 4 7
M  V30 7 1 5 8
M  V30 8 2 6 9
M  V30 9 1 8 10
M  V30 10 1 8 11 CFG=3
M  V30 11 1 9 12
M  V30 12 2 10 13
M  V30 13 1 10 14
M  V30 14 1 12 15
M  V30 15 1 15 16
M  V30 16 1 15 17
M  V30 17 2 16 18
M  V30 18 1 16 19
M  V30 19 2 17 20
M  V30 20 1 17 21
M  V30 21 1 19 22
M  V30 22 1 20 23
M  V30 23 2 21 24
M  V30 24 2 22 25
M  V30 25 1 22 26
M  V30 26 2 23 27
M  V30 27 1 24 28
M  V30 28 2 26 29
M  V30 29 1 26 30
M  V30 30 1 28 31
M  V30 31 1 28 32
M  V30 32 1 28 33
M  V30 33 1 29 34
M  V30 34 2 30 35
M  V30 35 2 34 36
M  V30 36 1 36 37
M  V30 37 1 7 9
M  V30 38 1 19 20
M  V30 39 1 24 27
M  V30 40 1 35 36
M  V30 END BOND
M  V30 BEGIN COLLECTION
M  V30 MDLV30/STEABS ATOMS=(1 8)
M  V30 END COLLECTION
M  V30 END CTAB
M  END
>  <Molecule ChEMBL ID>
CHEMBL1946567

>  <Smiles>
C[C@@H](Oc1cc(Cn2c(=O)n(C(=O)c3ccc(Cl)cc3)c3ccc(C(F)(F)F)cc32)ccc1Cl)C(=O)O

>  <IC50_nM>
255

>  <Assay Description>
Binding affinity to human PPARgamma by scintillation proximity assay

$$$$
CHEMBL3695875
Actelion Java MolfileCreator 2.0

  0  0  0  0  0  0              0 V3000
M  V30 BEGIN CTAB
M  V30 COUNTS 39 44 0 0 0
M  V30 BEGIN ATOM
M  V30 1 O 3.4641 -0.4999 0.0 0
M  V30 2 C 2.598 0.0 0.0 0
M  V30 3 N 1.732 -0.4999 0.0 0
M  V30 4 C 2.598 1.0 0.0 0
M  V30 5 C 0.866 0.0 0.0 0 CFG=2
M  V30 6 C 1.732 1.4999 0.0 0
M  V30 7 C 3.4641 1.5 0.0 0
M  V30 8 C 0.0 -0.4999 0.0 0
M  V30 9 C 0.866 1.0 0.0 0
M  V30 10 C 1.732 2.4999 0.0 0
M  V30 11 C 3.4641 2.5 0.0 0
M  V30 12 C 0.0 -1.5 0.0 0
M  V30 13 C -0.866 0.0 0.0 0
M  V30 14 C 2.598 3.0 0.0 0
M  V30 15 C 0.9889 3.1691 0.0 0
M  V30 16 C -0.866 -1.9999 0.0 0
M  V30 17 C 0.866 -1.9999 0.0 0
M  V30 18 C -1.732 -0.4999 0.0 0
M  V30 19 N 2.3901 3.9781 0.0 0
M  V30 20 C 1.3956 4.0826 0.0 0
M  V30 21 C 0.0107 2.9612 0.0 0
M  V30 22 C -1.732 -1.4999 0.0 0
M  V30 23 C -0.866 -3.0 0.0 0
M  V30 24 C 0.866 -2.9999 0.0 0
M  V30 25 C 3.0592 4.7212 0.0 0
M  V30 26 C 0.8956 4.9487 0.0 0
M  V30 27 C 0.0 -3.5 0.0 0
M  V30 28 C 2.7502 5.6723 0.0 0
M  V30 29 C 3.4194 6.4154 0.0 0
M  V30 30 C 1.7721 5.8802 0.0 0
M  V30 31 C 3.1103 7.3665 0.0 0
M  V30 32 C 1.4631 6.8313 0.0 0
M  V30 33 C 2.1322 7.5744 0.0 0
M  V30 34 C 1.8232 8.5255 0.0 0
M  V30 35 C 2.4923 9.2686 0.0 0
M  V30 36 C 0.845 8.7334 0.0 0
M  V30 37 C 2.1833 10.2197 0.0 0
M  V30 38 C 0.536 9.6844 0.0 0
M  V30 39 C 1.2051 10.4276 0.0 0
M  V30 END ATOM
M  V30 BEGIN BOND
M  V30 1 2 1 2
M  V30 2 1 2 3
M  V30 3 1 2 4
M  V30 4 1 3 5
M  V30 5 2 4 6
M  V30 6 1 4 7
M  V30 7 1 5 8
M  V30 8 1 5 9 CFG=3
M  V30 9 1 6 10
M  V30 10 2 7 11
M  V30 11 1 8 12
M  V30 12 2 8 13
M  V30 13 2 10 14
M  V30 14 1 10 15
M  V30 15 1 12 16
M  V30 16 2 12 17
M  V30 17 1 13 18
M  V30 18 1 14 19
M  V30 19 2 15 20
M  V30 20 1 15 21
M  V30 21 1 16 22
M  V30 22 2 16 23
M  V30 23 1 17 24
M  V30 24 1 19 25
M  V30 25 1 20 26
M  V30 26 1 23 27
M  V30 27 1 25 28
M  V30 28 2 28 29
M  V30 29 1 28 30
M  V30 30 1 29 31
M  V30 31 2 30 32
M  V30 32 2 31 33
M  V30 33 1 33 34
M  V30 34 2 34 35
M  V30 35 1 34 36
M  V30 36 1 35 37
M  V30 37 2 36 38
M  V30 38 2 37 39
M  V30 39 1 11 14
M  V30 40 2 18 22
M  V30 41 1 19 20
M  V30 42 2 24 27
M  V30 43 1 32 33
M  V30 44 1 38 39
M  V30 END BOND
M  V30 BEGIN COLLECTION
M  V30 MDLV30/STEABS ATOMS=(1 5)
M  V30 END COLLECTION
M  V30 END CTAB
M  END
>  <Molecule ChEMBL ID>
CHEMBL3695875

>  <Smiles>
Cc1c(C)n(Cc2ccc(-c3ccccc3)cc2)c2ccc(C(=O)N[C@@H](C)c3cccc4ccccc34)cc12

>  <IC50_nM>
256

>  <Assay Description>
Lanthascreen Competitive Binding Assay: The assay was performed according to manufacturer protocol. A mixture of nM GST-PPARG-LBD, 5 nM Tb-GST-antibody, 5 nM Fluormone Pan-PPAR Green, and serial dilutions of the experimental compound, beginning at 10 ׬M downwards, was added to wells of black 384-well low-volume plates (Greiner) to a total volume of 18 ׬L. All dilutions were made in TR-FRET assay buffer C. DMSO at 2% final concentration was used as a no-ligand control. Experiment was performed in triplicate, and incubated for 2 hours in the dark prior to assay read in Perkin Elmer ViewLux ultra HTS microplate reader. FRET signal was measured by excitation at 340 nm and emission at 520 nm for fluorescein and 490 nm for terbium. Fold change over DMSO was calculated using GraphPad Prism Software (La Jolla, Calif.) by calculating 520 nm/490 nm ratio. Graphs were plotted as fold change of FRET signal for compound treatment over DMSO-only control.

$$$$
CHEMBL121
Actelion Java MolfileCreator 2.0

  0  0  0  0  0  0              0 V3000
M  V30 BEGIN CTAB
M  V30 COUNTS 25 27 0 0 0
M  V30 BEGIN ATOM
M  V30 1 S 7.8987 0.0054 0.0 0
M  V30 2 C 8.8769 -0.2024 0.0 0
M  V30 3 C 7.7942 0.9999 0.0 0 CFG=2
M  V30 4 O 9.2836 -1.1159 0.0 0
M  V30 5 N 9.3769 0.6635 0.0 0
M  V30 6 C 8.7077 1.4067 0.0 0
M  V30 7 C 6.9282 1.4999 0.0 0
M  V30 8 O 8.9156 2.3848 0.0 0
M  V30 9 C 6.0621 0.9999 0.0 0
M  V30 10 C 5.1961 1.4999 0.0 0
M  V30 11 C 6.0621 0.0 0.0 0
M  V30 12 C 4.3301 0.9999 0.0 0
M  V30 13 C 5.1961 -0.5 0.0 0
M  V30 14 C 4.3301 0.0 0.0 0
M  V30 15 O 3.4641 -0.5 0.0 0
M  V30 16 C 2.598 0.0 0.0 0
M  V30 17 C 1.732 -0.5 0.0 0
M  V30 18 N 0.866 0.0 0.0 0
M  V30 19 C 0.866 1.0 0.0 0
M  V30 20 C 0.0 -0.5 0.0 0
M  V30 21 N 1.732 1.4999 0.0 0
M  V30 22 C 0.0 1.4999 0.0 0
M  V30 23 C 1.732 2.5 0.0 0
M  V30 24 C 0.0 2.5 0.0 0
M  V30 25 C 0.866 3.0 0.0 0
M  V30 END ATOM
M  V30 BEGIN BOND
M  V30 1 1 1 2
M  V30 2 1 1 3
M  V30 3 2 2 4
M  V30 4 1 2 5
M  V30 5 1 3 6
M  V30 6 1 3 7 CFG=1
M  V30 7 2 6 8
M  V30 8 1 7 9
M  V30 9 2 9 10
M  V30 10 1 9 11
M  V30 11 1 10 12
M  V30 12 2 11 13
M  V30 13 2 12 14
M  V30 14 1 14 15
M  V30 15 1 15 16
M  V30 16 1 16 17
M  V30 17 1 17 18
M  V30 18 1 18 19
M  V30 19 1 18 20
M  V30 20 2 19 21
M  V30 21 1 19 22
M  V30 22 1 21 23
M  V30 23 2 22 24
M  V30 24 2 23 25
M  V30 25 1 5 6
M  V30 26 1 13 14
M  V30 27 1 24 25
M  V30 END BOND
M  V30 BEGIN COLLECTION
M  V30 MDLV30/STERAC1 ATOMS=(1 3)
M  V30 END COLLECTION
M  V30 END CTAB
M  END
>  <Molecule ChEMBL ID>
CHEMBL121

>  <Smiles>
CN(CCOc1ccc(CC2SC(=O)NC2=O)cc1)c1ccccn1

>  <IC50_nM>
256

>  <Assay Description>
Displacement of fluorescein labeled ligand from PPARgamma receptor by fluorescence polarization assay

$$$$
CHEMBL392718
Actelion Java MolfileCreator 2.0

  0  0  0  0  0  0              0 V3000
M  V30 BEGIN CTAB
M  V30 COUNTS 33 36 0 0 0
M  V30 BEGIN ATOM
M  V30 1 Cl 6.8201 -5.1517 0.0 0
M  V30 2 C 7.5701 -3.8526 0.0 0
M  V30 3 C 6.8201 -2.5536 0.0 0
M  V30 4 C 9.0701 -3.8526 0.0 0
M  V30 5 C 7.5701 -1.2546 0.0 0
M  V30 6 C 5.3529 -2.2417 0.0 0
M  V30 7 C 9.8201 -2.5536 0.0 0
M  V30 8 N 6.5664 -0.1398 0.0 0
M  V30 9 C 9.0701 -1.2546 0.0 0
M  V30 10 C 5.1961 -0.75 0.0 0
M  V30 11 C 3.8971 0.0 0.0 0
M  V30 12 O 3.8971 1.5 0.0 0
M  V30 13 N 2.598 -0.75 0.0 0
M  V30 14 C 1.299 0.0 0.0 0
M  V30 15 C 0.0 -0.75 0.0 0
M  V30 16 C -1.299 0.0 0.0 0
M  V30 17 C 0.0 -2.25 0.0 0
M  V30 18 C -2.598 -0.7499 0.0 0
M  V30 19 C -1.299 -2.9999 0.0 0
M  V30 20 O -3.8971 0.0 0.0 0
M  V30 21 C -2.598 -2.2499 0.0 0
M  V30 22 C -5.1961 -0.7499 0.0 0
M  V30 23 C -6.4951 0.0 0.0 0
M  V30 24 C -5.1961 -2.2499 0.0 0
M  V30 25 C -7.7942 -0.7499 0.0 0
M  V30 26 C -6.4951 -2.9999 0.0 0
M  V30 27 C -7.7942 -2.2499 0.0 0
M  V30 28 C -9.0932 0.0 0.0 0
M  V30 29 C -9.0932 -2.9999 0.0 0
M  V30 30 C -9.0932 -4.4999 0.0 0
M  V30 31 C -10.3923 -5.2499 0.0 0
M  V30 32 O -11.6913 -4.4999 0.0 0
M  V30 33 O -10.3923 -6.7499 0.0 0
M  V30 END ATOM
M  V30 BEGIN BOND
M  V30 1 1 1 2
M  V30 2 2 2 3
M  V30 3 1 2 4
M  V30 4 1 3 5
M  V30 5 1 3 6
M  V30 6 2 4 7
M  V30 7 1 5 8
M  V30 8 2 5 9
M  V30 9 2 6 10
M  V30 10 1 10 11
M  V30 11 2 11 12
M  V30 12 1 11 13
M  V30 13 1 13 14
M  V30 14 1 14 15
M  V30 15 2 15 16
M  V30 16 1 15 17
M  V30 17 1 16 18
M  V30 18 2 17 19
M  V30 19 1 18 20
M  V30 20 2 18 21
M  V30 21 1 20 22
M  V30 22 2 22 23
M  V30 23 1 22 24
M  V30 24 1 23 25
M  V30 25 2 24 26
M  V30 26 2 25 27
M  V30 27 1 25 28
M  V30 28 1 27 29
M  V30 29 1 29 30
M  V30 30 1 30 31
M  V30 31 2 31 32
M  V30 32 1 31 33
M  V30 33 1 7 9
M  V30 34 1 8 10
M  V30 35 1 19 21
M  V30 36 1 26 27
M  V30 END BOND
M  V30 END CTAB
M  END
>  <Molecule ChEMBL ID>
CHEMBL392718

>  <Smiles>
Cc1cc(Oc2cccc(CNC(=O)c3cc4c(Cl)cccc4[nH]3)c2)ccc1CCC(=O)O

>  <IC50_nM>
258

>  <Assay Description>
Displacement of [3H]2-methyl-2-(4-{3-{propyl-(5-pyridin-2-yl-thiophene-2-sulfonyl)-amino}-propyl}-phenoxy)-propionic acid from human PPARgamma

$$$$
CHEMBL365097
Actelion Java MolfileCreator 2.0

  0  0  0  0  0  0              0 V3000
M  V30 BEGIN CTAB
M  V30 COUNTS 34 36 0 0 0
M  V30 BEGIN ATOM
M  V30 1 O 9.7298 -4.1595 0.0 0
M  V30 2 C 9.2641 -2.7262 0.0 0
M  V30 3 N 10.15 -1.507 0.0 0
M  V30 4 C 7.8308 -2.2605 0.0 0
M  V30 5 O 9.2641 -0.2878 0.0 0
M  V30 6 C 11.657 -1.507 0.0 0
M  V30 7 C 7.8308 -0.7535 0.0 0
M  V30 8 C 6.5257 -3.0141 0.0 0
M  V30 9 C 12.4105 -2.8122 0.0 0
M  V30 10 C 12.4105 -0.2019 0.0 0
M  V30 11 C 6.5257 0.0 0.0 0
M  V30 12 C 5.2205 -2.2605 0.0 0
M  V30 13 C 5.2205 -0.7535 0.0 0
M  V30 14 C 6.5257 1.507 0.0 0
M  V30 15 C 3.9561 -3.3041 0.0 0
M  V30 16 O 3.9154 0.0 0.0 0
M  V30 17 C 7.8308 2.2605 0.0 0
M  V30 18 C 3.9154 -4.5211 0.0 0
M  V30 19 C 2.6102 -0.7535 0.0 0 CFG=1
M  V30 20 C 9.136 1.507 0.0 0
M  V30 21 C 2.6102 -5.2746 0.0 0
M  V30 22 C 1.3051 0.0 0.0 0
M  V30 23 C 2.6102 -2.2605 0.0 0
M  V30 24 C 0.0 -0.7535 0.0 0
M  V30 25 C 1.3051 1.507 0.0 0
M  V30 26 O 3.8921 -2.848 0.0 0
M  V30 27 O 1.3051 -3.0141 0.0 0
M  V30 28 C -1.3051 0.0 0.0 0
M  V30 29 C 0.0 2.2605 0.0 0
M  V30 30 C -1.3051 1.507 0.0 0
M  V30 31 C -2.6102 2.2605 0.0 0
M  V30 32 C -3.9154 1.507 0.0 0
M  V30 33 C -3.9154 0.0 0.0 0
M  V30 34 C -5.2205 2.2605 0.0 0
M  V30 END ATOM
M  V30 BEGIN BOND
M  V30 1 2 1 2
M  V30 2 1 2 3
M  V30 3 1 2 4
M  V30 4 1 3 5
M  V30 5 1 3 6
M  V30 6 2 4 7
M  V30 7 1 4 8
M  V30 8 1 6 9
M  V30 9 1 6 10
M  V30 10 1 7 11
M  V30 11 2 8 12
M  V30 12 2 11 13
M  V30 13 1 11 14
M  V30 14 1 12 15
M  V30 15 1 13 16
M  V30 16 1 14 17
M  V30 17 1 15 18
M  V30 18 1 19 16 CFG=3
M  V30 19 1 17 20
M  V30 20 1 18 21
M  V30 21 1 19 22
M  V30 22 1 19 23
M  V30 23 2 22 24
M  V30 24 1 22 25
M  V30 25 2 23 26
M  V30 26 1 23 27
M  V30 27 1 24 28
M  V30 28 2 25 29
M  V30 29 2 28 30
M  V30 30 1 30 31
M  V30 31 1 31 32
M  V30 32 1 32 33
M  V30 33 1 32 34
M  V30 34 1 5 7
M  V30 35 1 12 13
M  V30 36 1 29 30
M  V30 END BOND
M  V30 BEGIN COLLECTION
M  V30 MDLV30/STEABS ATOMS=(1 19)
M  V30 END COLLECTION
M  V30 END CTAB
M  END
>  <Molecule ChEMBL ID>
CHEMBL365097

>  <Smiles>
CCCc1cc2c(=O)n(C(C)C)oc2c(CCC)c1O[C@H](C(=O)O)c1ccc(CC(C)C)cc1

>  <IC50_nM>
260

>  <Assay Description>
In vitro binding affinity for human PPAR gamma

$$$$
CHEMBL112725
Actelion Java MolfileCreator 2.0

  0  0  0  0  0  0              0 V3000
M  V30 BEGIN CTAB
M  V30 COUNTS 35 38 0 0 0
M  V30 BEGIN ATOM
M  V30 1 Cl 6.0621 1.0 0.0 0
M  V30 2 C 6.0621 0.0 0.0 0
M  V30 3 C 5.1961 -0.5 0.0 0
M  V30 4 C 6.9282 -0.4999 0.0 0
M  V30 5 O 4.3301 0.0 0.0 0
M  V30 6 C 5.1961 -1.4999 0.0 0
M  V30 7 C 6.9282 -1.4999 0.0 0
M  V30 8 C 3.4641 -0.5 0.0 0
M  V30 9 C 6.0621 -1.9999 0.0 0
M  V30 10 O 7.7942 -1.9999 0.0 0
M  V30 11 C 2.598 0.0 0.0 0
M  V30 12 C 8.6602 -1.4999 0.0 0
M  V30 13 C 1.732 -0.5 0.0 0
M  V30 14 C 9.5262 -1.9999 0.0 0
M  V30 15 C 8.6602 -0.4999 0.0 0
M  V30 16 O 0.866 0.0 0.0 0
M  V30 17 C 10.3923 -1.4999 0.0 0
M  V30 18 C 9.5262 0.0 0.0 0
M  V30 19 C 0.0 -0.5 0.0 0
M  V30 20 C 10.3923 -0.5 0.0 0
M  V30 21 C -0.866 0.0 0.0 0
M  V30 22 C 0.0 -1.4999 0.0 0
M  V30 23 F 11.2583 0.0 0.0 0
M  V30 24 C -1.732 -0.4999 0.0 0
M  V30 25 C -0.866 -1.9999 0.0 0
M  V30 26 O -2.598 0.0 0.0 0
M  V30 27 C -1.732 -1.4999 0.0 0
M  V30 28 C -3.4641 -0.4999 0.0 0 CFG=1
M  V30 29 C -2.598 -1.9999 0.0 0
M  V30 30 C -3.4641 0.5 0.0 0
M  V30 31 C -3.4641 -1.4999 0.0 0
M  V30 32 C -4.3301 0.0 0.0 0
M  V30 33 O -4.3301 1.0 0.0 0
M  V30 34 O -2.598 1.0 0.0 0
M  V30 35 C -5.1961 -0.4999 0.0 0
M  V30 END ATOM
M  V30 BEGIN BOND
M  V30 1 1 1 2
M  V30 2 2 2 3
M  V30 3 1 2 4
M  V30 4 1 3 5
M  V30 5 1 3 6
M  V30 6 2 4 7
M  V30 7 1 5 8
M  V30 8 2 6 9
M  V30 9 1 7 10
M  V30 10 1 8 11
M  V30 11 1 10 12
M  V30 12 1 11 13
M  V30 13 2 12 14
M  V30 14 1 12 15
M  V30 15 1 13 16
M  V30 16 1 14 17
M  V30 17 2 15 18
M  V30 18 1 16 19
M  V30 19 2 17 20
M  V30 20 2 19 21
M  V30 21 1 19 22
M  V30 22 1 20 23
M  V30 23 1 21 24
M  V30 24 2 22 25
M  V30 25 1 24 26
M  V30 26 2 24 27
M  V30 27 1 26 28
M  V30 28 1 27 29
M  V30 29 1 28 30 CFG=3
M  V30 30 1 28 31
M  V30 31 1 28 32
M  V30 32 2 30 33
M  V30 33 1 30 34
M  V30 34 1 32 35
M  V30 35 1 7 9
M  V30 36 1 18 20
M  V30 37 1 25 27
M  V30 38 1 29 31
M  V30 END BOND
M  V30 BEGIN COLLECTION
M  V30 MDLV30/STEABS ATOMS=(1 28)
M  V30 END COLLECTION
M  V30 END CTAB
M  END
>  <Molecule ChEMBL ID>
CHEMBL112725

>  <Smiles>
CC[C@]1(C(=O)O)CCc2ccc(OCCCOc3ccc(Oc4ccc(F)cc4)cc3Cl)cc2O1

>  <IC50_nM>
260

>  <Assay Description>
In vitro binding affinity for human peroxisome proliferator activated receptor gamma using scintillation proximity assay (SPA)

$$$$
CHEMBL189066
Actelion Java MolfileCreator 2.0

  0  0  0  0  0  0              0 V3000
M  V30 BEGIN CTAB
M  V30 COUNTS 28 29 0 0 0
M  V30 BEGIN ATOM
M  V30 1 O 5.217 -0.753 0.0 0
M  V30 2 C 3.9127 0.0 0.0 0
M  V30 3 O 3.9127 1.506 0.0 0
M  V30 4 C 2.6085 -0.753 0.0 0 CFG=2
M  V30 5 O 1.3042 0.0 0.0 0
M  V30 6 C 2.6085 -2.259 0.0 0
M  V30 7 C 0.0 -0.753 0.0 0
M  V30 8 C 1.4755 -2.8858 0.0 0
M  V30 9 C 3.9127 -3.012 0.0 0
M  V30 10 C -1.3042 0.0 0.0 0
M  V30 11 C 0.0 -2.259 0.0 0
M  V30 12 C 1.3042 -4.518 0.0 0
M  V30 13 C 3.9127 -4.518 0.0 0
M  V30 14 C -2.6085 -0.753 0.0 0
M  V30 15 C -1.3042 1.506 0.0 0
M  V30 16 C -1.3042 -3.012 0.0 0
M  V30 17 C 1.0406 -3.2063 0.0 0
M  V30 18 C 2.6085 -5.2711 0.0 0
M  V30 19 C -2.6085 -2.259 0.0 0
M  V30 20 C -2.6085 2.259 0.0 0
M  V30 21 C 2.6085 -6.7771 0.0 0
M  V30 22 C -3.9127 -3.012 0.0 0
M  V30 23 C -3.9127 1.506 0.0 0
M  V30 24 C 1.3042 -7.5301 0.0 0
M  V30 25 C 3.9127 -7.5301 0.0 0
M  V30 26 O -3.9127 -4.518 0.0 0
M  V30 27 C -5.217 -2.259 0.0 0
M  V30 28 C -6.5212 -3.012 0.0 0
M  V30 END ATOM
M  V30 BEGIN BOND
M  V30 1 2 1 2
M  V30 2 1 2 3
M  V30 3 1 2 4
M  V30 4 1 4 5 CFG=1
M  V30 5 1 4 6
M  V30 6 1 5 7
M  V30 7 2 6 8
M  V30 8 1 6 9
M  V30 9 2 7 10
M  V30 10 1 7 11
M  V30 11 1 8 12
M  V30 12 2 9 13
M  V30 13 1 10 14
M  V30 14 1 10 15
M  V30 15 2 11 16
M  V30 16 1 11 17
M  V30 17 2 12 18
M  V30 18 2 14 19
M  V30 19 1 15 20
M  V30 20 1 18 21
M  V30 21 1 19 22
M  V30 22 1 20 23
M  V30 23 1 21 24
M  V30 24 1 21 25
M  V30 25 2 22 26
M  V30 26 1 22 27
M  V30 27 1 27 28
M  V30 28 1 13 18
M  V30 29 1 16 19
M  V30 END BOND
M  V30 BEGIN COLLECTION
M  V30 MDLV30/STERAC1 ATOMS=(1 4)
M  V30 END COLLECTION
M  V30 END CTAB
M  END
>  <Molecule ChEMBL ID>
CHEMBL189066

>  <Smiles>
CCCc1cc(C(=O)CC)cc(C)c1OC(C(=O)O)c1ccc(C(C)C)cc1

>  <IC50_nM>
260

>  <Assay Description>
In vitro binding affinity for human PPAR gamma

$$$$
CHEMBL112725
Actelion Java MolfileCreator 2.0

  0  0  0  0  0  0              0 V3000
M  V30 BEGIN CTAB
M  V30 COUNTS 35 38 0 0 0
M  V30 BEGIN ATOM
M  V30 1 Cl 6.0621 1.0 0.0 0
M  V30 2 C 6.0621 0.0 0.0 0
M  V30 3 C 5.1961 -0.5 0.0 0
M  V30 4 C 6.9282 -0.4999 0.0 0
M  V30 5 O 4.3301 0.0 0.0 0
M  V30 6 C 5.1961 -1.4999 0.0 0
M  V30 7 C 6.9282 -1.4999 0.0 0
M  V30 8 C 3.4641 -0.5 0.0 0
M  V30 9 C 6.0621 -1.9999 0.0 0
M  V30 10 O 7.7942 -1.9999 0.0 0
M  V30 11 C 2.598 0.0 0.0 0
M  V30 12 C 8.6602 -1.4999 0.0 0
M  V30 13 C 1.732 -0.5 0.0 0
M  V30 14 C 9.5262 -1.9999 0.0 0
M  V30 15 C 8.6602 -0.4999 0.0 0
M  V30 16 O 0.866 0.0 0.0 0
M  V30 17 C 10.3923 -1.4999 0.0 0
M  V30 18 C 9.5262 0.0 0.0 0
M  V30 19 C 0.0 -0.5 0.0 0
M  V30 20 C 10.3923 -0.5 0.0 0
M  V30 21 C -0.866 0.0 0.0 0
M  V30 22 C 0.0 -1.4999 0.0 0
M  V30 23 F 11.2583 0.0 0.0 0
M  V30 24 C -1.732 -0.4999 0.0 0
M  V30 25 C -0.866 -1.9999 0.0 0
M  V30 26 O -2.598 0.0 0.0 0
M  V30 27 C -1.732 -1.4999 0.0 0
M  V30 28 C -3.4641 -0.4999 0.0 0 CFG=1
M  V30 29 C -2.598 -1.9999 0.0 0
M  V30 30 C -3.4641 0.5 0.0 0
M  V30 31 C -3.4641 -1.4999 0.0 0
M  V30 32 C -4.3301 0.0 0.0 0
M  V30 33 O -4.3301 1.0 0.0 0
M  V30 34 O -2.598 1.0 0.0 0
M  V30 35 C -5.1961 -0.4999 0.0 0
M  V30 END ATOM
M  V30 BEGIN BOND
M  V30 1 1 1 2
M  V30 2 2 2 3
M  V30 3 1 2 4
M  V30 4 1 3 5
M  V30 5 1 3 6
M  V30 6 2 4 7
M  V30 7 1 5 8
M  V30 8 2 6 9
M  V30 9 1 7 10
M  V30 10 1 8 11
M  V30 11 1 10 12
M  V30 12 1 11 13
M  V30 13 2 12 14
M  V30 14 1 12 15
M  V30 15 1 13 16
M  V30 16 1 14 17
M  V30 17 2 15 18
M  V30 18 1 16 19
M  V30 19 2 17 20
M  V30 20 2 19 21
M  V30 21 1 19 22
M  V30 22 1 20 23
M  V30 23 1 21 24
M  V30 24 2 22 25
M  V30 25 1 24 26
M  V30 26 2 24 27
M  V30 27 1 26 28
M  V30 28 1 27 29
M  V30 29 1 28 30 CFG=3
M  V30 30 1 28 31
M  V30 31 1 28 32
M  V30 32 2 30 33
M  V30 33 1 30 34
M  V30 34 1 32 35
M  V30 35 1 7 9
M  V30 36 1 18 20
M  V30 37 1 25 27
M  V30 38 1 29 31
M  V30 END BOND
M  V30 BEGIN COLLECTION
M  V30 MDLV30/STEABS ATOMS=(1 28)
M  V30 END COLLECTION
M  V30 END CTAB
M  END
>  <Molecule ChEMBL ID>
CHEMBL112725

>  <Smiles>
CC[C@]1(C(=O)O)CCc2ccc(OCCCOc3ccc(Oc4ccc(F)cc4)cc3Cl)cc2O1

>  <IC50_nM>
260

>  <Assay Description>
In vitro binding affinity against human PPARgamma

$$$$
CHEMBL601222
Actelion Java MolfileCreator 2.0

  0  0  0  0  0  0              0 V3000
M  V30 BEGIN CTAB
M  V30 COUNTS 40 44 0 0 0
M  V30 BEGIN ATOM
M  V30 1 O 11.1837 5.7369 0.0 0
M  V30 2 C 10.8747 4.7859 0.0 0
M  V30 3 O 9.8965 4.578 0.0 0
M  V30 4 C 11.5438 4.0427 0.0 0
M  V30 5 C 11.2348 3.0917 0.0 0
M  V30 6 C 12.522 4.2506 0.0 0
M  V30 7 C 10.2566 2.8838 0.0 0
M  V30 8 C 11.9039 2.3485 0.0 0
M  V30 9 C 13.1911 3.5075 0.0 0
M  V30 10 C 9.5875 3.6269 0.0 0
M  V30 11 C 9.9476 1.9327 0.0 0
M  V30 12 C 12.8821 2.5564 0.0 0
M  V30 13 C 8.6094 3.419 0.0 0
M  V30 14 C 8.9695 1.7248 0.0 0
M  V30 15 C 8.3003 2.4679 0.0 0
M  V30 16 C 7.3222 2.26 0.0 0
M  V30 17 N 7.0132 1.309 0.0 0
M  V30 18 C 6.0621 0.9999 0.0 0
M  V30 19 C 7.601 0.5 0.0 0
M  V30 20 C 6.0621 0.0 0.0 0
M  V30 21 C 5.1961 1.4999 0.0 0
M  V30 22 C 7.0132 -0.309 0.0 0
M  V30 23 C 8.601 0.5 0.0 0
M  V30 24 C 5.1961 -0.5 0.0 0
M  V30 25 C 4.3301 0.9999 0.0 0
M  V30 26 C 9.101 -0.366 0.0 0
M  V30 27 C 4.3301 0.0 0.0 0
M  V30 28 C 10.101 -0.366 0.0 0
M  V30 29 N 3.4641 -0.5 0.0 0
M  V30 30 C 2.598 0.0 0.0 0
M  V30 31 O 2.598 1.0 0.0 0
M  V30 32 C 1.732 -0.5 0.0 0 CFG=1
M  V30 33 C 1.732 -1.5 0.0 0
M  V30 34 C 0.866 0.0 0.0 0
M  V30 35 C 0.866 -1.9999 0.0 0
M  V30 36 C 2.598 -2.0 0.0 0
M  V30 37 C 0.0 -0.5 0.0 0
M  V30 38 C 0.866 -2.9999 0.0 0
M  V30 39 C 2.598 -3.0 0.0 0
M  V30 40 C 1.732 -3.5 0.0 0
M  V30 END ATOM
M  V30 BEGIN BOND
M  V30 1 2 1 2
M  V30 2 1 2 3
M  V30 3 1 2 4
M  V30 4 2 4 5
M  V30 5 1 4 6
M  V30 6 1 5 7
M  V30 7 1 5 8
M  V30 8 2 6 9
M  V30 9 2 7 10
M  V30 10 1 7 11
M  V30 11 2 8 12
M  V30 12 1 10 13
M  V30 13 2 11 14
M  V30 14 2 13 15
M  V30 15 1 15 16
M  V30 16 1 16 17
M  V30 17 1 17 18
M  V30 18 1 17 19
M  V30 19 2 18 20
M  V30 20 1 18 21
M  V30 21 2 19 22
M  V30 22 1 19 23
M  V30 23 1 20 24
M  V30 24 2 21 25
M  V30 25 1 23 26
M  V30 26 2 24 27
M  V30 27 1 26 28
M  V30 28 1 27 29
M  V30 29 1 29 30
M  V30 30 2 30 31
M  V30 31 1 30 32
M  V30 32 1 32 33
M  V30 33 1 32 34 CFG=1
M  V30 34 2 33 35
M  V30 35 1 33 36
M  V30 36 1 34 37
M  V30 37 1 35 38
M  V30 38 2 36 39
M  V30 39 2 38 40
M  V30 40 1 9 12
M  V30 41 1 14 15
M  V30 42 1 20 22
M  V30 43 1 25 27
M  V30 44 1 39 40
M  V30 END BOND
M  V30 BEGIN COLLECTION
M  V30 MDLV30/STERAC1 ATOMS=(1 32)
M  V30 END COLLECTION
M  V30 END CTAB
M  END
>  <Molecule ChEMBL ID>
CHEMBL601222

>  <Smiles>
CCCc1cc2cc(NC(=O)C(CC)c3ccccc3)ccc2n1Cc1ccc(-c2ccccc2C(=O)O)cc1

>  <IC50_nM>
260

>  <Assay Description>
Displacement of radiolabeled ((5-{4-[Methyl-pyridin-2yl-amino)-ethoxy]-benzyl}-thiazolidine-2,4-dione) from human PPARgamma ligand binding domain expressed in Escherichia coli

$$$$
CHEMBL3678128
Actelion Java MolfileCreator 2.0

  0  0  0  0  0  0              0 V3000
M  V30 BEGIN CTAB
M  V30 COUNTS 40 43 0 0 0
M  V30 BEGIN ATOM
M  V30 1 Cl 4.3301 0.9999 0.0 0
M  V30 2 C 4.3301 0.0 0.0 0
M  V30 3 C 3.4641 -0.5 0.0 0
M  V30 4 C 5.1961 -0.5 0.0 0
M  V30 5 O 2.598 0.0 0.0 0
M  V30 6 C 3.4641 -1.5 0.0 0
M  V30 7 C 5.1961 -1.5 0.0 0
M  V30 8 C 1.732 -0.5 0.0 0 CFG=2
M  V30 9 C 4.3301 -2.0 0.0 0
M  V30 10 C 0.866 0.0 0.0 0
M  V30 11 C 1.732 -1.5 0.0 0
M  V30 12 C 4.3301 -3.0 0.0 0
M  V30 13 O 0.866 1.0 0.0 0
M  V30 14 O 0.0 -0.5 0.0 0
M  V30 15 N 5.1961 -3.5 0.0 0
M  V30 16 C 5.3006 -4.4945 0.0 0
M  V30 17 C 6.1096 -3.0932 0.0 0
M  V30 18 C 6.2788 -4.7024 0.0 0
M  V30 19 C 4.6315 -5.2376 0.0 0
M  V30 20 C 6.7788 -3.8364 0.0 0
M  V30 21 C 6.3176 -2.1151 0.0 0
M  V30 22 C 6.5878 -5.6534 0.0 0
M  V30 23 C 4.9405 -6.1887 0.0 0
M  V30 24 C 7.7733 -3.7318 0.0 0
M  V30 25 C 5.9187 -6.3966 0.0 0
M  V30 26 C 6.2277 -7.3476 0.0 0
M  V30 27 O 5.5586 -8.0908 0.0 0
M  V30 28 N 7.2058 -7.5556 0.0 0
M  V30 29 C 7.5148 -8.5066 0.0 0 CFG=2
M  V30 30 C 6.8457 -9.2498 0.0 0
M  V30 31 C 8.493 -8.7145 0.0 0
M  V30 32 C 5.8676 -9.0418 0.0 0
M  V30 33 C 7.1547 -10.2008 0.0 0
M  V30 34 C 5.1984 -9.785 0.0 0
M  V30 35 C 6.4856 -10.944 0.0 0
M  V30 36 C 5.5075 -10.736 0.0 0
M  V30 37 C 4.8383 -11.4792 0.0 0
M  V30 38 C 5.5815 -12.1483 0.0 0
M  V30 39 C 4.1692 -12.2223 0.0 0
M  V30 40 C 4.0952 -10.8101 0.0 0
M  V30 END ATOM
M  V30 BEGIN BOND
M  V30 1 1 1 2
M  V30 2 2 2 3
M  V30 3 1 2 4
M  V30 4 1 3 5
M  V30 5 1 3 6
M  V30 6 2 4 7
M  V30 7 1 5 8
M  V30 8 2 6 9
M  V30 9 1 8 10
M  V30 10 1 8 11 CFG=1
M  V30 11 1 9 12
M  V30 12 2 10 13
M  V30 13 1 10 14
M  V30 14 1 12 15
M  V30 15 1 15 16
M  V30 16 1 15 17
M  V30 17 2 16 18
M  V30 18 1 16 19
M  V30 19 2 17 20
M  V30 20 1 17 21
M  V30 21 1 18 22
M  V30 22 2 19 23
M  V30 23 1 20 24
M  V30 24 2 22 25
M  V30 25 1 25 26
M  V30 26 2 26 27
M  V30 27 1 26 28
M  V30 28 1 28 29
M  V30 29 1 29 30
M  V30 30 1 29 31 CFG=1
M  V30 31 2 30 32
M  V30 32 1 30 33
M  V30 33 1 32 34
M  V30 34 2 33 35
M  V30 35 2 34 36
M  V30 36 1 36 37
M  V30 37 1 37 38
M  V30 38 1 37 39
M  V30 39 1 37 40
M  V30 40 1 7 9
M  V30 41 1 18 20
M  V30 42 1 23 25
M  V30 43 1 35 36
M  V30 END BOND
M  V30 BEGIN COLLECTION
M  V30 MDLV30/STEABS ATOMS=(2 8 29)
M  V30 END COLLECTION
M  V30 END CTAB
M  END
>  <Molecule ChEMBL ID>
CHEMBL3678128

>  <Smiles>
Cc1c(C)n(Cc2ccc(Cl)c(O[C@@H](C)C(=O)O)c2)c2ccc(C(=O)N[C@@H](C)c3ccc(C(C)(C)C)cc3)cc12

>  <IC50_nM>
263

>  <Assay Description>
Lanthascreen Competitive Binding Assay: The assay was performed according to manufacturer protocol. A mixture of 5 nM GST-PPARG-LBD, 5 nM Tb-GST-antibody, 5 nM Fluormone Pan- PPAR Green, and serial dilutions of the experimental compound, beginning at 10 ׬� downwards, was added to wells of black 384-well low- volume plates (Greiner) to a total volume of 18 xL. All dilutions were made in TR-FRET assay buffer C. DMSO at 2% final concentration was used as a no-ligand control. Experiment was performed in triplicate, and incubated for 2 hours in the dark prior to assay read in Perkin Elmer ViewLux ultra HTS microplate reader. FRET signal was measured by excitation at 340 nm and emission at 520 nm for fluorescein and 490 nm for terbium.

$$$$
CHEMBL121
Actelion Java MolfileCreator 2.0

  0  0  0  0  0  0              0 V3000
M  V30 BEGIN CTAB
M  V30 COUNTS 25 27 0 0 0
M  V30 BEGIN ATOM
M  V30 1 S 7.8987 0.0054 0.0 0
M  V30 2 C 8.8769 -0.2024 0.0 0
M  V30 3 C 7.7942 0.9999 0.0 0 CFG=2
M  V30 4 O 9.2836 -1.1159 0.0 0
M  V30 5 N 9.3769 0.6635 0.0 0
M  V30 6 C 8.7077 1.4067 0.0 0
M  V30 7 C 6.9282 1.4999 0.0 0
M  V30 8 O 8.9156 2.3848 0.0 0
M  V30 9 C 6.0621 0.9999 0.0 0
M  V30 10 C 5.1961 1.4999 0.0 0
M  V30 11 C 6.0621 0.0 0.0 0
M  V30 12 C 4.3301 0.9999 0.0 0
M  V30 13 C 5.1961 -0.5 0.0 0
M  V30 14 C 4.3301 0.0 0.0 0
M  V30 15 O 3.4641 -0.5 0.0 0
M  V30 16 C 2.598 0.0 0.0 0
M  V30 17 C 1.732 -0.5 0.0 0
M  V30 18 N 0.866 0.0 0.0 0
M  V30 19 C 0.866 1.0 0.0 0
M  V30 20 C 0.0 -0.5 0.0 0
M  V30 21 N 1.732 1.4999 0.0 0
M  V30 22 C 0.0 1.4999 0.0 0
M  V30 23 C 1.732 2.5 0.0 0
M  V30 24 C 0.0 2.5 0.0 0
M  V30 25 C 0.866 3.0 0.0 0
M  V30 END ATOM
M  V30 BEGIN BOND
M  V30 1 1 1 2
M  V30 2 1 1 3
M  V30 3 2 2 4
M  V30 4 1 2 5
M  V30 5 1 3 6
M  V30 6 1 3 7 CFG=1
M  V30 7 2 6 8
M  V30 8 1 7 9
M  V30 9 2 9 10
M  V30 10 1 9 11
M  V30 11 1 10 12
M  V30 12 2 11 13
M  V30 13 2 12 14
M  V30 14 1 14 15
M  V30 15 1 15 16
M  V30 16 1 16 17
M  V30 17 1 17 18
M  V30 18 1 18 19
M  V30 19 1 18 20
M  V30 20 2 19 21
M  V30 21 1 19 22
M  V30 22 1 21 23
M  V30 23 2 22 24
M  V30 24 2 23 25
M  V30 25 1 5 6
M  V30 26 1 13 14
M  V30 27 1 24 25
M  V30 END BOND
M  V30 BEGIN COLLECTION
M  V30 MDLV30/STERAC1 ATOMS=(1 3)
M  V30 END COLLECTION
M  V30 END CTAB
M  END
>  <Molecule ChEMBL ID>
CHEMBL121

>  <Smiles>
CN(CCOc1ccc(CC2SC(=O)NC2=O)cc1)c1ccccn1

>  <IC50_nM>
267

>  <Assay Description>
Agonist activity at N-terminal His-tagged human PPARgamma ligand binding domain by fluorescence polarization assay

$$$$
CHEMBL210973
Actelion Java MolfileCreator 2.0

  0  0  0  0  0  0              0 V3000
M  V30 BEGIN CTAB
M  V30 COUNTS 31 33 0 0 0
M  V30 BEGIN ATOM
M  V30 1 F 9.1393 -2.451 0.0 0
M  V30 2 C 8.1882 -2.76 0.0 0
M  V30 3 F 8.4972 -3.7111 0.0 0
M  V30 4 F 7.2372 -3.069 0.0 0
M  V30 5 C 7.8792 -1.809 0.0 0
M  V30 6 N 8.467 -1.0 0.0 0
M  V30 7 C 6.9282 -1.5 0.0 0
M  V30 8 O 7.8792 -0.1909 0.0 0
M  V30 9 C 6.9282 -0.5 0.0 0
M  V30 10 C 6.0621 -2.0 0.0 0
M  V30 11 C 6.0621 0.0 0.0 0
M  V30 12 C 5.1961 -1.4999 0.0 0
M  V30 13 C 5.1961 -0.5 0.0 0
M  V30 14 C 6.0621 0.9999 0.0 0
M  V30 15 O 4.3301 0.0 0.0 0
M  V30 16 C 6.9282 1.4999 0.0 0
M  V30 17 C 3.4641 -0.5 0.0 0
M  V30 18 C 6.9282 2.4999 0.0 0
M  V30 19 C 2.598 0.0 0.0 0
M  V30 20 C 1.732 -0.5 0.0 0
M  V30 21 O 0.866 0.0 0.0 0
M  V30 22 C 0.0 -0.5 0.0 0
M  V30 23 C -0.866 0.0 0.0 0
M  V30 24 C 0.0 -1.4999 0.0 0
M  V30 25 C -1.732 -0.4999 0.0 0
M  V30 26 C -0.866 -1.9999 0.0 0
M  V30 27 C -1.732 -1.4999 0.0 0
M  V30 28 C -2.598 -1.9999 0.0 0
M  V30 29 C -3.4641 -1.4999 0.0 0
M  V30 30 O -3.4641 -0.4999 0.0 0
M  V30 31 O -4.3301 -1.9999 0.0 0
M  V30 END ATOM
M  V30 BEGIN BOND
M  V30 1 1 1 2
M  V30 2 1 2 3
M  V30 3 1 2 4
M  V30 4 1 2 5
M  V30 5 2 5 6
M  V30 6 1 5 7
M  V30 7 1 6 8
M  V30 8 2 7 9
M  V30 9 1 7 10
M  V30 10 1 9 11
M  V30 11 2 10 12
M  V30 12 2 11 13
M  V30 13 1 11 14
M  V30 14 1 13 15
M  V30 15 1 14 16
M  V30 16 1 15 17
M  V30 17 1 16 18
M  V30 18 1 17 19
M  V30 19 1 19 20
M  V30 20 1 20 21
M  V30 21 1 21 22
M  V30 22 2 22 23
M  V30 23 1 22 24
M  V30 24 1 23 25
M  V30 25 2 24 26
M  V30 26 2 25 27
M  V30 27 1 27 28
M  V30 28 1 28 29
M  V30 29 2 29 30
M  V30 30 1 29 31
M  V30 31 1 8 9
M  V30 32 1 12 13
M  V30 33 1 26 27
M  V30 END BOND
M  V30 END CTAB
M  END
>  <Molecule ChEMBL ID>
CHEMBL210973

>  <Smiles>
CCCc1c(OCCCOc2ccc(CC(=O)O)cc2)ccc2c(C(F)(F)F)noc12

>  <IC50_nM>
269.77

>  <Assay Description>
Agonist activity at PPARgamma

$$$$
CHEMBL210973
Actelion Java MolfileCreator 2.0

  0  0  0  0  0  0              0 V3000
M  V30 BEGIN CTAB
M  V30 COUNTS 31 33 0 0 0
M  V30 BEGIN ATOM
M  V30 1 F 9.1393 -2.451 0.0 0
M  V30 2 C 8.1882 -2.76 0.0 0
M  V30 3 F 8.4972 -3.7111 0.0 0
M  V30 4 F 7.2372 -3.069 0.0 0
M  V30 5 C 7.8792 -1.809 0.0 0
M  V30 6 N 8.467 -1.0 0.0 0
M  V30 7 C 6.9282 -1.5 0.0 0
M  V30 8 O 7.8792 -0.1909 0.0 0
M  V30 9 C 6.9282 -0.5 0.0 0
M  V30 10 C 6.0621 -2.0 0.0 0
M  V30 11 C 6.0621 0.0 0.0 0
M  V30 12 C 5.1961 -1.4999 0.0 0
M  V30 13 C 5.1961 -0.5 0.0 0
M  V30 14 C 6.0621 0.9999 0.0 0
M  V30 15 O 4.3301 0.0 0.0 0
M  V30 16 C 6.9282 1.4999 0.0 0
M  V30 17 C 3.4641 -0.5 0.0 0
M  V30 18 C 6.9282 2.4999 0.0 0
M  V30 19 C 2.598 0.0 0.0 0
M  V30 20 C 1.732 -0.5 0.0 0
M  V30 21 O 0.866 0.0 0.0 0
M  V30 22 C 0.0 -0.5 0.0 0
M  V30 23 C -0.866 0.0 0.0 0
M  V30 24 C 0.0 -1.4999 0.0 0
M  V30 25 C -1.732 -0.4999 0.0 0
M  V30 26 C -0.866 -1.9999 0.0 0
M  V30 27 C -1.732 -1.4999 0.0 0
M  V30 28 C -2.598 -1.9999 0.0 0
M  V30 29 C -3.4641 -1.4999 0.0 0
M  V30 30 O -3.4641 -0.4999 0.0 0
M  V30 31 O -4.3301 -1.9999 0.0 0
M  V30 END ATOM
M  V30 BEGIN BOND
M  V30 1 1 1 2
M  V30 2 1 2 3
M  V30 3 1 2 4
M  V30 4 1 2 5
M  V30 5 2 5 6
M  V30 6 1 5 7
M  V30 7 1 6 8
M  V30 8 2 7 9
M  V30 9 1 7 10
M  V30 10 1 9 11
M  V30 11 2 10 12
M  V30 12 2 11 13
M  V30 13 1 11 14
M  V30 14 1 13 15
M  V30 15 1 14 16
M  V30 16 1 15 17
M  V30 17 1 16 18
M  V30 18 1 17 19
M  V30 19 1 19 20
M  V30 20 1 20 21
M  V30 21 1 21 22
M  V30 22 2 22 23
M  V30 23 1 22 24
M  V30 24 1 23 25
M  V30 25 2 24 26
M  V30 26 2 25 27
M  V30 27 1 27 28
M  V30 28 1 28 29
M  V30 29 2 29 30
M  V30 30 1 29 31
M  V30 31 1 8 9
M  V30 32 1 12 13
M  V30 33 1 26 27
M  V30 END BOND
M  V30 END CTAB
M  END
>  <Molecule ChEMBL ID>
CHEMBL210973

>  <Smiles>
CCCc1c(OCCCOc2ccc(CC(=O)O)cc2)ccc2c(C(F)(F)F)noc12

>  <IC50_nM>
270

>  <Assay Description>
Inhibition of PPAR gamma

$$$$
CHEMBL210973
Actelion Java MolfileCreator 2.0

  0  0  0  0  0  0              0 V3000
M  V30 BEGIN CTAB
M  V30 COUNTS 31 33 0 0 0
M  V30 BEGIN ATOM
M  V30 1 F 9.1393 -2.451 0.0 0
M  V30 2 C 8.1882 -2.76 0.0 0
M  V30 3 F 8.4972 -3.7111 0.0 0
M  V30 4 F 7.2372 -3.069 0.0 0
M  V30 5 C 7.8792 -1.809 0.0 0
M  V30 6 N 8.467 -1.0 0.0 0
M  V30 7 C 6.9282 -1.5 0.0 0
M  V30 8 O 7.8792 -0.1909 0.0 0
M  V30 9 C 6.9282 -0.5 0.0 0
M  V30 10 C 6.0621 -2.0 0.0 0
M  V30 11 C 6.0621 0.0 0.0 0
M  V30 12 C 5.1961 -1.4999 0.0 0
M  V30 13 C 5.1961 -0.5 0.0 0
M  V30 14 C 6.0621 0.9999 0.0 0
M  V30 15 O 4.3301 0.0 0.0 0
M  V30 16 C 6.9282 1.4999 0.0 0
M  V30 17 C 3.4641 -0.5 0.0 0
M  V30 18 C 6.9282 2.4999 0.0 0
M  V30 19 C 2.598 0.0 0.0 0
M  V30 20 C 1.732 -0.5 0.0 0
M  V30 21 O 0.866 0.0 0.0 0
M  V30 22 C 0.0 -0.5 0.0 0
M  V30 23 C -0.866 0.0 0.0 0
M  V30 24 C 0.0 -1.4999 0.0 0
M  V30 25 C -1.732 -0.4999 0.0 0
M  V30 26 C -0.866 -1.9999 0.0 0
M  V30 27 C -1.732 -1.4999 0.0 0
M  V30 28 C -2.598 -1.9999 0.0 0
M  V30 29 C -3.4641 -1.4999 0.0 0
M  V30 30 O -3.4641 -0.4999 0.0 0
M  V30 31 O -4.3301 -1.9999 0.0 0
M  V30 END ATOM
M  V30 BEGIN BOND
M  V30 1 1 1 2
M  V30 2 1 2 3
M  V30 3 1 2 4
M  V30 4 1 2 5
M  V30 5 2 5 6
M  V30 6 1 5 7
M  V30 7 1 6 8
M  V30 8 2 7 9
M  V30 9 1 7 10
M  V30 10 1 9 11
M  V30 11 2 10 12
M  V30 12 2 11 13
M  V30 13 1 11 14
M  V30 14 1 13 15
M  V30 15 1 14 16
M  V30 16 1 15 17
M  V30 17 1 16 18
M  V30 18 1 17 19
M  V30 19 1 19 20
M  V30 20 1 20 21
M  V30 21 1 21 22
M  V30 22 2 22 23
M  V30 23 1 22 24
M  V30 24 1 23 25
M  V30 25 2 24 26
M  V30 26 2 25 27
M  V30 27 1 27 28
M  V30 28 1 28 29
M  V30 29 2 29 30
M  V30 30 1 29 31
M  V30 31 1 8 9
M  V30 32 1 12 13
M  V30 33 1 26 27
M  V30 END BOND
M  V30 END CTAB
M  END
>  <Molecule ChEMBL ID>
CHEMBL210973

>  <Smiles>
CCCc1c(OCCCOc2ccc(CC(=O)O)cc2)ccc2c(C(F)(F)F)noc12

>  <IC50_nM>
270

>  <Assay Description>
Agonist activity at PPARgamma

$$$$
CHEMBL213487
Actelion Java MolfileCreator 2.0

  0  0  0  0  0  0              0 V3000
M  V30 BEGIN CTAB
M  V30 COUNTS 32 35 0 0 0
M  V30 BEGIN ATOM
M  V30 1 O 4.3301 0.0 0.0 0
M  V30 2 C 4.3301 0.9999 0.0 0
M  V30 3 O 5.1961 1.4999 0.0 0
M  V30 4 C 3.4641 1.4999 0.0 0 CFG=1
M  V30 5 O 3.4641 2.4999 0.0 0
M  V30 6 C 2.598 1.0 0.0 0
M  V30 7 C 2.598 3.0 0.0 0
M  V30 8 C 1.732 1.5 0.0 0
M  V30 9 C 2.598 4.0 0.0 0
M  V30 10 C 0.866 1.0 0.0 0
M  V30 11 C 1.732 2.5 0.0 0
M  V30 12 C 0.0 1.5 0.0 0
M  V30 13 C 0.6581 0.0218 0.0 0
M  V30 14 C 0.866 3.0 0.0 0
M  V30 15 N -0.7431 0.8308 0.0 0
M  V30 16 C 0.0 2.5 0.0 0
M  V30 17 C -0.3364 -0.0826 0.0 0
M  V30 18 C -1.7212 1.0387 0.0 0
M  V30 19 C -2.3904 0.2956 0.0 0
M  V30 20 C -3.3685 0.5035 0.0 0
M  V30 21 C -4.0377 -0.2395 0.0 0
M  V30 22 N -5.0322 -0.135 0.0 0
M  V30 23 C -3.8297 -1.2177 0.0 0
M  V30 24 C -5.4389 -1.0486 0.0 0
M  V30 25 O -4.6958 -1.7177 0.0 0
M  V30 26 C -2.9162 -1.6244 0.0 0
M  V30 27 C -6.4171 -1.2565 0.0 0
M  V30 28 C -7.0862 -0.5133 0.0 0
M  V30 29 C -6.7261 -2.2075 0.0 0
M  V30 30 C -8.0643 -0.7212 0.0 0
M  V30 31 C -7.7042 -2.4154 0.0 0
M  V30 32 C -8.3734 -1.6723 0.0 0
M  V30 END ATOM
M  V30 BEGIN BOND
M  V30 1 2 1 2
M  V30 2 1 2 3
M  V30 3 1 2 4
M  V30 4 1 4 5 CFG=3
M  V30 5 1 4 6
M  V30 6 1 5 7
M  V30 7 1 6 8
M  V30 8 1 7 9
M  V30 9 2 8 10
M  V30 10 1 8 11
M  V30 11 1 10 12
M  V30 12 1 10 13
M  V30 13 2 11 14
M  V30 14 1 12 15
M  V30 15 2 12 16
M  V30 16 2 13 17
M  V30 17 1 15 18
M  V30 18 1 18 19
M  V30 19 1 19 20
M  V30 20 1 20 21
M  V30 21 1 21 22
M  V30 22 2 21 23
M  V30 23 2 22 24
M  V30 24 1 23 25
M  V30 25 1 23 26
M  V30 26 1 24 27
M  V30 27 2 27 28
M  V30 28 1 27 29
M  V30 29 1 28 30
M  V30 30 2 29 31
M  V30 31 2 30 32
M  V30 32 1 14 16
M  V30 33 1 15 17
M  V30 34 1 24 25
M  V30 35 1 31 32
M  V30 END BOND
M  V30 BEGIN COLLECTION
M  V30 MDLV30/STERAC1 ATOMS=(1 4)
M  V30 END COLLECTION
M  V30 END CTAB
M  END
>  <Molecule ChEMBL ID>
CHEMBL213487

>  <Smiles>
CCOC(Cc1cccc2c1ccn2CCCc1nc(-c2ccccc2)oc1C)C(=O)O

>  <IC50_nM>
274

>  <Assay Description>
Binding affinity to PPARgamma by radio ligand binding assay

$$$$
CHEMBL121
Actelion Java MolfileCreator 2.0

  0  0  0  0  0  0              0 V3000
M  V30 BEGIN CTAB
M  V30 COUNTS 25 27 0 0 0
M  V30 BEGIN ATOM
M  V30 1 S 7.8987 0.0054 0.0 0
M  V30 2 C 8.8769 -0.2024 0.0 0
M  V30 3 C 7.7942 0.9999 0.0 0 CFG=2
M  V30 4 O 9.2836 -1.1159 0.0 0
M  V30 5 N 9.3769 0.6635 0.0 0
M  V30 6 C 8.7077 1.4067 0.0 0
M  V30 7 C 6.9282 1.4999 0.0 0
M  V30 8 O 8.9156 2.3848 0.0 0
M  V30 9 C 6.0621 0.9999 0.0 0
M  V30 10 C 5.1961 1.4999 0.0 0
M  V30 11 C 6.0621 0.0 0.0 0
M  V30 12 C 4.3301 0.9999 0.0 0
M  V30 13 C 5.1961 -0.5 0.0 0
M  V30 14 C 4.3301 0.0 0.0 0
M  V30 15 O 3.4641 -0.5 0.0 0
M  V30 16 C 2.598 0.0 0.0 0
M  V30 17 C 1.732 -0.5 0.0 0
M  V30 18 N 0.866 0.0 0.0 0
M  V30 19 C 0.866 1.0 0.0 0
M  V30 20 C 0.0 -0.5 0.0 0
M  V30 21 N 1.732 1.4999 0.0 0
M  V30 22 C 0.0 1.4999 0.0 0
M  V30 23 C 1.732 2.5 0.0 0
M  V30 24 C 0.0 2.5 0.0 0
M  V30 25 C 0.866 3.0 0.0 0
M  V30 END ATOM
M  V30 BEGIN BOND
M  V30 1 1 1 2
M  V30 2 1 1 3
M  V30 3 2 2 4
M  V30 4 1 2 5
M  V30 5 1 3 6
M  V30 6 1 3 7 CFG=1
M  V30 7 2 6 8
M  V30 8 1 7 9
M  V30 9 2 9 10
M  V30 10 1 9 11
M  V30 11 1 10 12
M  V30 12 2 11 13
M  V30 13 2 12 14
M  V30 14 1 14 15
M  V30 15 1 15 16
M  V30 16 1 16 17
M  V30 17 1 17 18
M  V30 18 1 18 19
M  V30 19 1 18 20
M  V30 20 2 19 21
M  V30 21 1 19 22
M  V30 22 1 21 23
M  V30 23 2 22 24
M  V30 24 2 23 25
M  V30 25 1 5 6
M  V30 26 1 13 14
M  V30 27 1 24 25
M  V30 END BOND
M  V30 BEGIN COLLECTION
M  V30 MDLV30/STERAC1 ATOMS=(1 3)
M  V30 END COLLECTION
M  V30 END CTAB
M  END
>  <Molecule ChEMBL ID>
CHEMBL121

>  <Smiles>
CN(CCOc1ccc(CC2SC(=O)NC2=O)cc1)c1ccccn1

>  <IC50_nM>
274

>  <Assay Description>
Displacement of [3H]darglitazone from human PPARgamma by scintillation proximity assay

$$$$
CHEMBL121
Actelion Java MolfileCreator 2.0

  0  0  0  0  0  0              0 V3000
M  V30 BEGIN CTAB
M  V30 COUNTS 25 27 0 0 0
M  V30 BEGIN ATOM
M  V30 1 S 7.8987 0.0054 0.0 0
M  V30 2 C 8.8769 -0.2024 0.0 0
M  V30 3 C 7.7942 0.9999 0.0 0 CFG=2
M  V30 4 O 9.2836 -1.1159 0.0 0
M  V30 5 N 9.3769 0.6635 0.0 0
M  V30 6 C 8.7077 1.4067 0.0 0
M  V30 7 C 6.9282 1.4999 0.0 0
M  V30 8 O 8.9156 2.3848 0.0 0
M  V30 9 C 6.0621 0.9999 0.0 0
M  V30 10 C 5.1961 1.4999 0.0 0
M  V30 11 C 6.0621 0.0 0.0 0
M  V30 12 C 4.3301 0.9999 0.0 0
M  V30 13 C 5.1961 -0.5 0.0 0
M  V30 14 C 4.3301 0.0 0.0 0
M  V30 15 O 3.4641 -0.5 0.0 0
M  V30 16 C 2.598 0.0 0.0 0
M  V30 17 C 1.732 -0.5 0.0 0
M  V30 18 N 0.866 0.0 0.0 0
M  V30 19 C 0.866 1.0 0.0 0
M  V30 20 C 0.0 -0.5 0.0 0
M  V30 21 N 1.732 1.4999 0.0 0
M  V30 22 C 0.0 1.4999 0.0 0
M  V30 23 C 1.732 2.5 0.0 0
M  V30 24 C 0.0 2.5 0.0 0
M  V30 25 C 0.866 3.0 0.0 0
M  V30 END ATOM
M  V30 BEGIN BOND
M  V30 1 1 1 2
M  V30 2 1 1 3
M  V30 3 2 2 4
M  V30 4 1 2 5
M  V30 5 1 3 6
M  V30 6 1 3 7 CFG=1
M  V30 7 2 6 8
M  V30 8 1 7 9
M  V30 9 2 9 10
M  V30 10 1 9 11
M  V30 11 1 10 12
M  V30 12 2 11 13
M  V30 13 2 12 14
M  V30 14 1 14 15
M  V30 15 1 15 16
M  V30 16 1 16 17
M  V30 17 1 17 18
M  V30 18 1 18 19
M  V30 19 1 18 20
M  V30 20 2 19 21
M  V30 21 1 19 22
M  V30 22 1 21 23
M  V30 23 2 22 24
M  V30 24 2 23 25
M  V30 25 1 5 6
M  V30 26 1 13 14
M  V30 27 1 24 25
M  V30 END BOND
M  V30 BEGIN COLLECTION
M  V30 MDLV30/STERAC1 ATOMS=(1 3)
M  V30 END COLLECTION
M  V30 END CTAB
M  END
>  <Molecule ChEMBL ID>
CHEMBL121

>  <Smiles>
CN(CCOc1ccc(CC2SC(=O)NC2=O)cc1)c1ccccn1

>  <IC50_nM>
274

>  <Assay Description>
Displacement of [3H2]nTZD3 from GST-tagged human PPARgamma expressed in Escherichia coli by SPA

$$$$
CHEMBL210768
Actelion Java MolfileCreator 2.0

  0  0  0  0  0  0              0 V3000
M  V30 BEGIN CTAB
M  V30 COUNTS 32 34 0 0 0
M  V30 BEGIN ATOM
M  V30 1 Cl 6.0621 1.0 0.0 0
M  V30 2 C 6.0621 0.0 0.0 0
M  V30 3 C 5.1961 -0.5 0.0 0
M  V30 4 C 6.9282 -0.4999 0.0 0
M  V30 5 O 4.3301 0.0 0.0 0
M  V30 6 C 5.1961 -1.4999 0.0 0
M  V30 7 C 6.9282 -1.4999 0.0 0
M  V30 8 C 3.4641 -0.5 0.0 0
M  V30 9 C 6.0621 -1.9999 0.0 0
M  V30 10 C 7.7942 -1.9999 0.0 0
M  V30 11 C 2.598 0.0 0.0 0
M  V30 12 C 7.7942 -2.9999 0.0 0
M  V30 13 C 1.732 -0.5 0.0 0
M  V30 14 O 6.9282 -3.4999 0.0 0
M  V30 15 O 8.6602 -3.4999 0.0 0
M  V30 16 O 0.866 0.0 0.0 0
M  V30 17 C 0.0 -0.5 0.0 0
M  V30 18 C -0.866 0.0 0.0 0
M  V30 19 C 0.0 -1.5 0.0 0
M  V30 20 C -1.732 -0.4999 0.0 0
M  V30 21 C -0.866 1.0 0.0 0
M  V30 22 C -0.866 -1.9999 0.0 0
M  V30 23 O -2.6831 -0.1909 0.0 0
M  V30 24 C -1.732 -1.4999 0.0 0
M  V30 25 C 0.0 1.5 0.0 0
M  V30 26 N -3.2708 -0.9999 0.0 0
M  V30 27 C -2.6831 -1.809 0.0 0
M  V30 28 C 0.0 2.5 0.0 0
M  V30 29 C -2.9921 -2.76 0.0 0
M  V30 30 F -2.041 -3.069 0.0 0
M  V30 31 F -3.3011 -3.7111 0.0 0
M  V30 32 F -3.9431 -2.451 0.0 0
M  V30 END ATOM
M  V30 BEGIN BOND
M  V30 1 1 1 2
M  V30 2 2 2 3
M  V30 3 1 2 4
M  V30 4 1 3 5
M  V30 5 1 3 6
M  V30 6 2 4 7
M  V30 7 1 5 8
M  V30 8 2 6 9
M  V30 9 1 7 10
M  V30 10 1 8 11
M  V30 11 1 10 12
M  V30 12 1 11 13
M  V30 13 2 12 14
M  V30 14 1 12 15
M  V30 15 1 13 16
M  V30 16 1 16 17
M  V30 17 2 17 18
M  V30 18 1 17 19
M  V30 19 1 18 20
M  V30 20 1 18 21
M  V30 21 2 19 22
M  V30 22 1 20 23
M  V30 23 2 20 24
M  V30 24 1 21 25
M  V30 25 1 23 26
M  V30 26 1 24 27
M  V30 27 1 25 28
M  V30 28 1 27 29
M  V30 29 1 29 30
M  V30 30 1 29 31
M  V30 31 1 29 32
M  V30 32 1 7 9
M  V30 33 1 22 24
M  V30 34 2 26 27
M  V30 END BOND
M  V30 END CTAB
M  END
>  <Molecule ChEMBL ID>
CHEMBL210768

>  <Smiles>
CCCc1c(OCCCOc2ccc(CC(=O)O)cc2Cl)ccc2c(C(F)(F)F)noc12

>  <IC50_nM>
279.9

>  <Assay Description>
Agonist activity at PPARgamma

$$$$
CHEMBL397120
Actelion Java MolfileCreator 2.0

  0  0  0  0  0  0              0 V3000
M  V30 BEGIN CTAB
M  V30 COUNTS 40 44 0 0 0
M  V30 BEGIN ATOM
M  V30 1 Cl 4.2372 2.8204 0.0 0
M  V30 2 C 5.2317 2.9249 0.0 0
M  V30 3 C 5.8195 2.1159 0.0 0
M  V30 4 C 5.6384 3.8385 0.0 0
M  V30 5 C 5.4128 1.2024 0.0 0
M  V30 6 C 6.814 2.2205 0.0 0
M  V30 7 C 6.633 3.943 0.0 0
M  V30 8 O 4.4346 0.9945 0.0 0
M  V30 9 C 5.9128 0.3364 0.0 0
M  V30 10 C 7.2207 3.134 0.0 0
M  V30 11 C 4.3301 0.0 0.0 0
M  V30 12 C 5.2436 -0.4067 0.0 0
M  V30 13 C 3.4641 -0.5 0.0 0
M  V30 14 N 2.598 0.0 0.0 0
M  V30 15 C 2.598 1.0 0.0 0
M  V30 16 C 1.732 -0.5 0.0 0
M  V30 17 C 1.732 1.5 0.0 0
M  V30 18 C 1.732 -1.5 0.0 0
M  V30 19 C 1.732 2.5 0.0 0
M  V30 20 C 0.866 1.0 0.0 0
M  V30 21 O 2.598 -2.0 0.0 0
M  V30 22 O 0.866 -2.0 0.0 0
M  V30 23 C 0.866 3.0 0.0 0
M  V30 24 C 0.0 1.5 0.0 0
M  V30 25 C 0.0 2.5 0.0 0
M  V30 26 O -0.866 3.0 0.0 0
M  V30 27 C -1.732 2.5 0.0 0
M  V30 28 C -2.598 3.0 0.0 0
M  V30 29 C -3.4641 2.5 0.0 0
M  V30 30 N -4.3776 2.9067 0.0 0
M  V30 31 C -3.5686 1.5054 0.0 0
M  V30 32 C -5.0467 2.1635 0.0 0
M  V30 33 O -4.5467 1.2975 0.0 0
M  V30 34 C -2.8254 0.8363 0.0 0
M  V30 35 C -6.0412 2.2681 0.0 0
M  V30 36 C -6.448 3.1816 0.0 0
M  V30 37 C -6.629 1.4591 0.0 0
M  V30 38 C -7.4425 3.2861 0.0 0
M  V30 39 C -7.6236 1.5636 0.0 0
M  V30 40 C -8.0303 2.4771 0.0 0
M  V30 END ATOM
M  V30 BEGIN BOND
M  V30 1 1 1 2
M  V30 2 2 2 3
M  V30 3 1 2 4
M  V30 4 1 3 5
M  V30 5 1 3 6
M  V30 6 2 4 7
M  V30 7 1 5 8
M  V30 8 2 5 9
M  V30 9 2 6 10
M  V30 10 1 8 11
M  V30 11 1 9 12
M  V30 12 1 11 13
M  V30 13 1 13 14
M  V30 14 1 14 15
M  V30 15 1 14 16
M  V30 16 1 15 17
M  V30 17 1 16 18
M  V30 18 2 17 19
M  V30 19 1 17 20
M  V30 20 2 18 21
M  V30 21 1 18 22
M  V30 22 1 19 23
M  V30 23 2 20 24
M  V30 24 2 23 25
M  V30 25 1 25 26
M  V30 26 1 26 27
M  V30 27 1 27 28
M  V30 28 1 28 29
M  V30 29 1 29 30
M  V30 30 2 29 31
M  V30 31 2 30 32
M  V30 32 1 31 33
M  V30 33 1 31 34
M  V30 34 1 32 35
M  V30 35 2 35 36
M  V30 36 1 35 37
M  V30 37 1 36 38
M  V30 38 2 37 39
M  V30 39 2 38 40
M  V30 40 1 7 10
M  V30 41 2 11 12
M  V30 42 1 24 25
M  V30 43 1 32 33
M  V30 44 1 39 40
M  V30 END BOND
M  V30 END CTAB
M  END
>  <Molecule ChEMBL ID>
CHEMBL397120

>  <Smiles>
Cc1oc(-c2ccccc2)nc1CCOc1ccc(CN(CC(=O)O)Cc2ccc(-c3ccccc3Cl)o2)cc1

>  <IC50_nM>
280

>  <Assay Description>
Displacement of fluorescein labeled ligand from PPARgamma receptor by fluorescence polarization assay

$$$$
CHEMBL218840
Actelion Java MolfileCreator 2.0

  0  0  0  0  0  0              0 V3000
M  V30 BEGIN CTAB
M  V30 COUNTS 32 35 0 0 0
M  V30 BEGIN ATOM
M  V30 1 S 3.8971 0.0 0.0 0
M  V30 2 O 4.6471 1.299 0.0 0
M  V30 3 O 3.1471 1.299 0.0 0
M  V30 4 N 2.598 -0.75 0.0 0
M  V30 5 C 5.1961 -0.75 0.0 0
M  V30 6 C 1.299 0.0 0.0 0
M  V30 7 C 5.1961 -2.25 0.0 0
M  V30 8 C 6.4951 0.0 0.0 0
M  V30 9 O 1.299 1.5 0.0 0
M  V30 10 C 0.0 -0.75 0.0 0
M  V30 11 C 6.4951 -3.0 0.0 0
M  V30 12 C 7.7942 -0.75 0.0 0
M  V30 13 N -1.3703 -0.1398 0.0 0
M  V30 14 C -0.1567 -2.2417 0.0 0
M  V30 15 C 7.7942 -2.25 0.0 0
M  V30 16 C 6.4951 -4.5 0.0 0
M  V30 17 C -2.374 -1.2546 0.0 0
M  V30 18 C -1.6821 1.3273 0.0 0
M  V30 19 C -1.624 -2.5536 0.0 0
M  V30 20 F 7.9952 -4.5 0.0 0
M  V30 21 F 6.4951 -6.0 0.0 0
M  V30 22 F 4.9951 -4.5 0.0 0
M  V30 23 C -3.874 -1.2546 0.0 0
M  V30 24 C -3.1087 1.7908 0.0 0
M  V30 25 C -2.374 -3.8526 0.0 0
M  V30 26 C -4.624 -2.5536 0.0 0
M  V30 27 C -3.4206 3.258 0.0 0
M  V30 28 C -4.2234 0.7871 0.0 0
M  V30 29 C -3.874 -3.8526 0.0 0
M  V30 30 C -4.8472 3.7216 0.0 0
M  V30 31 C -5.65 1.2506 0.0 0
M  V30 32 C -5.9619 2.7179 0.0 0
M  V30 END ATOM
M  V30 BEGIN BOND
M  V30 1 2 1 2
M  V30 2 2 1 3
M  V30 3 1 1 4
M  V30 4 1 1 5
M  V30 5 1 4 6
M  V30 6 2 5 7
M  V30 7 1 5 8
M  V30 8 2 6 9
M  V30 9 1 6 10
M  V30 10 1 7 11
M  V30 11 2 8 12
M  V30 12 1 10 13
M  V30 13 2 10 14
M  V30 14 2 11 15
M  V30 15 1 11 16
M  V30 16 1 13 17
M  V30 17 1 13 18
M  V30 18 1 14 19
M  V30 19 1 16 20
M  V30 20 1 16 21
M  V30 21 1 16 22
M  V30 22 1 17 23
M  V30 23 1 18 24
M  V30 24 1 19 25
M  V30 25 2 23 26
M  V30 26 2 24 27
M  V30 27 1 24 28
M  V30 28 2 25 29
M  V30 29 1 27 30
M  V30 30 2 28 31
M  V30 31 2 30 32
M  V30 32 1 12 15
M  V30 33 2 17 19
M  V30 34 1 26 29
M  V30 35 1 31 32
M  V30 END BOND
M  V30 END CTAB
M  END
>  <Molecule ChEMBL ID>
CHEMBL218840

>  <Smiles>
O=C(NS(=O)(=O)c1cccc(C(F)(F)F)c1)c1cc2ccccc2n1Cc1ccccc1

>  <IC50_nM>
280

>  <Assay Description>
Displacement of Fluormone from PPAR gamma

$$$$
CHEMBL218176
Actelion Java MolfileCreator 2.0

  0  0  0  0  0  0              0 V3000
M  V30 BEGIN CTAB
M  V30 COUNTS 33 36 0 0 0
M  V30 BEGIN ATOM
M  V30 1 Cl 9.0932 -3.0 0.0 0
M  V30 2 C 7.7942 -2.25 0.0 0
M  V30 3 C 7.7942 -0.75 0.0 0
M  V30 4 C 6.4951 -3.0 0.0 0
M  V30 5 C 6.4951 0.0 0.0 0
M  V30 6 C 5.1961 -2.25 0.0 0
M  V30 7 C 5.1961 -0.75 0.0 0
M  V30 8 S 3.8971 0.0 0.0 0
M  V30 9 O 4.6471 1.299 0.0 0
M  V30 10 O 3.1471 1.299 0.0 0
M  V30 11 N 2.598 -0.75 0.0 0
M  V30 12 C 1.299 0.0 0.0 0
M  V30 13 O 1.299 1.5 0.0 0
M  V30 14 C 0.0 -0.75 0.0 0
M  V30 15 N -1.3703 -0.1398 0.0 0
M  V30 16 C -0.1567 -2.2417 0.0 0
M  V30 17 C -2.374 -1.2546 0.0 0
M  V30 18 C -1.6821 1.3273 0.0 0
M  V30 19 C -1.624 -2.5536 0.0 0
M  V30 20 C -3.874 -1.2546 0.0 0
M  V30 21 C -3.1087 1.7908 0.0 0
M  V30 22 C -2.374 -3.8526 0.0 0
M  V30 23 C -4.624 -2.5536 0.0 0
M  V30 24 C -3.4206 3.258 0.0 0
M  V30 25 C -4.2234 0.7871 0.0 0
M  V30 26 C -3.874 -3.8526 0.0 0
M  V30 27 C -4.8472 3.7216 0.0 0
M  V30 28 C -5.65 1.2506 0.0 0
M  V30 29 C -5.9619 2.7179 0.0 0
M  V30 30 C -5.159 5.1888 0.0 0
M  V30 31 F -6.6263 4.8769 0.0 0
M  V30 32 F -5.4709 6.656 0.0 0
M  V30 33 F -3.6918 5.5006 0.0 0
M  V30 END ATOM
M  V30 BEGIN BOND
M  V30 1 1 1 2
M  V30 2 2 2 3
M  V30 3 1 2 4
M  V30 4 1 3 5
M  V30 5 2 4 6
M  V30 6 2 5 7
M  V30 7 1 7 8
M  V30 8 2 8 9
M  V30 9 2 8 10
M  V30 10 1 8 11
M  V30 11 1 11 12
M  V30 12 2 12 13
M  V30 13 1 12 14
M  V30 14 1 14 15
M  V30 15 2 14 16
M  V30 16 1 15 17
M  V30 17 1 15 18
M  V30 18 1 16 19
M  V30 19 1 17 20
M  V30 20 1 18 21
M  V30 21 1 19 22
M  V30 22 2 20 23
M  V30 23 2 21 24
M  V30 24 1 21 25
M  V30 25 2 22 26
M  V30 26 1 24 27
M  V30 27 2 25 28
M  V30 28 2 27 29
M  V30 29 1 27 30
M  V30 30 1 30 31
M  V30 31 1 30 32
M  V30 32 1 30 33
M  V30 33 1 6 7
M  V30 34 2 17 19
M  V30 35 1 23 26
M  V30 36 1 28 29
M  V30 END BOND
M  V30 END CTAB
M  END
>  <Molecule ChEMBL ID>
CHEMBL218176

>  <Smiles>
O=C(NS(=O)(=O)c1ccc(Cl)cc1)c1cc2ccccc2n1Cc1cccc(C(F)(F)F)c1

>  <IC50_nM>
280

>  <Assay Description>
Displacement of Fluormone from PPAR gamma

$$$$
CHEMBL210768
Actelion Java MolfileCreator 2.0

  0  0  0  0  0  0              0 V3000
M  V30 BEGIN CTAB
M  V30 COUNTS 32 34 0 0 0
M  V30 BEGIN ATOM
M  V30 1 Cl 6.0621 1.0 0.0 0
M  V30 2 C 6.0621 0.0 0.0 0
M  V30 3 C 5.1961 -0.5 0.0 0
M  V30 4 C 6.9282 -0.4999 0.0 0
M  V30 5 O 4.3301 0.0 0.0 0
M  V30 6 C 5.1961 -1.4999 0.0 0
M  V30 7 C 6.9282 -1.4999 0.0 0
M  V30 8 C 3.4641 -0.5 0.0 0
M  V30 9 C 6.0621 -1.9999 0.0 0
M  V30 10 C 7.7942 -1.9999 0.0 0
M  V30 11 C 2.598 0.0 0.0 0
M  V30 12 C 7.7942 -2.9999 0.0 0
M  V30 13 C 1.732 -0.5 0.0 0
M  V30 14 O 6.9282 -3.4999 0.0 0
M  V30 15 O 8.6602 -3.4999 0.0 0
M  V30 16 O 0.866 0.0 0.0 0
M  V30 17 C 0.0 -0.5 0.0 0
M  V30 18 C -0.866 0.0 0.0 0
M  V30 19 C 0.0 -1.5 0.0 0
M  V30 20 C -1.732 -0.4999 0.0 0
M  V30 21 C -0.866 1.0 0.0 0
M  V30 22 C -0.866 -1.9999 0.0 0
M  V30 23 O -2.6831 -0.1909 0.0 0
M  V30 24 C -1.732 -1.4999 0.0 0
M  V30 25 C 0.0 1.5 0.0 0
M  V30 26 N -3.2708 -0.9999 0.0 0
M  V30 27 C -2.6831 -1.809 0.0 0
M  V30 28 C 0.0 2.5 0.0 0
M  V30 29 C -2.9921 -2.76 0.0 0
M  V30 30 F -2.041 -3.069 0.0 0
M  V30 31 F -3.3011 -3.7111 0.0 0
M  V30 32 F -3.9431 -2.451 0.0 0
M  V30 END ATOM
M  V30 BEGIN BOND
M  V30 1 1 1 2
M  V30 2 2 2 3
M  V30 3 1 2 4
M  V30 4 1 3 5
M  V30 5 1 3 6
M  V30 6 2 4 7
M  V30 7 1 5 8
M  V30 8 2 6 9
M  V30 9 1 7 10
M  V30 10 1 8 11
M  V30 11 1 10 12
M  V30 12 1 11 13
M  V30 13 2 12 14
M  V30 14 1 12 15
M  V30 15 1 13 16
M  V30 16 1 16 17
M  V30 17 2 17 18
M  V30 18 1 17 19
M  V30 19 1 18 20
M  V30 20 1 18 21
M  V30 21 2 19 22
M  V30 22 1 20 23
M  V30 23 2 20 24
M  V30 24 1 21 25
M  V30 25 1 23 26
M  V30 26 1 24 27
M  V30 27 1 25 28
M  V30 28 1 27 29
M  V30 29 1 29 30
M  V30 30 1 29 31
M  V30 31 1 29 32
M  V30 32 1 7 9
M  V30 33 1 22 24
M  V30 34 2 26 27
M  V30 END BOND
M  V30 END CTAB
M  END
>  <Molecule ChEMBL ID>
CHEMBL210768

>  <Smiles>
CCCc1c(OCCCOc2ccc(CC(=O)O)cc2Cl)ccc2c(C(F)(F)F)noc12

>  <IC50_nM>
280

>  <Assay Description>
Agonist activity at PPARgamma

$$$$
CHEMBL210768
Actelion Java MolfileCreator 2.0

  0  0  0  0  0  0              0 V3000
M  V30 BEGIN CTAB
M  V30 COUNTS 32 34 0 0 0
M  V30 BEGIN ATOM
M  V30 1 Cl 6.0621 1.0 0.0 0
M  V30 2 C 6.0621 0.0 0.0 0
M  V30 3 C 5.1961 -0.5 0.0 0
M  V30 4 C 6.9282 -0.4999 0.0 0
M  V30 5 O 4.3301 0.0 0.0 0
M  V30 6 C 5.1961 -1.4999 0.0 0
M  V30 7 C 6.9282 -1.4999 0.0 0
M  V30 8 C 3.4641 -0.5 0.0 0
M  V30 9 C 6.0621 -1.9999 0.0 0
M  V30 10 C 7.7942 -1.9999 0.0 0
M  V30 11 C 2.598 0.0 0.0 0
M  V30 12 C 7.7942 -2.9999 0.0 0
M  V30 13 C 1.732 -0.5 0.0 0
M  V30 14 O 6.9282 -3.4999 0.0 0
M  V30 15 O 8.6602 -3.4999 0.0 0
M  V30 16 O 0.866 0.0 0.0 0
M  V30 17 C 0.0 -0.5 0.0 0
M  V30 18 C -0.866 0.0 0.0 0
M  V30 19 C 0.0 -1.5 0.0 0
M  V30 20 C -1.732 -0.4999 0.0 0
M  V30 21 C -0.866 1.0 0.0 0
M  V30 22 C -0.866 -1.9999 0.0 0
M  V30 23 O -2.6831 -0.1909 0.0 0
M  V30 24 C -1.732 -1.4999 0.0 0
M  V30 25 C 0.0 1.5 0.0 0
M  V30 26 N -3.2708 -0.9999 0.0 0
M  V30 27 C -2.6831 -1.809 0.0 0
M  V30 28 C 0.0 2.5 0.0 0
M  V30 29 C -2.9921 -2.76 0.0 0
M  V30 30 F -2.041 -3.069 0.0 0
M  V30 31 F -3.3011 -3.7111 0.0 0
M  V30 32 F -3.9431 -2.451 0.0 0
M  V30 END ATOM
M  V30 BEGIN BOND
M  V30 1 1 1 2
M  V30 2 2 2 3
M  V30 3 1 2 4
M  V30 4 1 3 5
M  V30 5 1 3 6
M  V30 6 2 4 7
M  V30 7 1 5 8
M  V30 8 2 6 9
M  V30 9 1 7 10
M  V30 10 1 8 11
M  V30 11 1 10 12
M  V30 12 1 11 13
M  V30 13 2 12 14
M  V30 14 1 12 15
M  V30 15 1 13 16
M  V30 16 1 16 17
M  V30 17 2 17 18
M  V30 18 1 17 19
M  V30 19 1 18 20
M  V30 20 1 18 21
M  V30 21 2 19 22
M  V30 22 1 20 23
M  V30 23 2 20 24
M  V30 24 1 21 25
M  V30 25 1 23 26
M  V30 26 1 24 27
M  V30 27 1 25 28
M  V30 28 1 27 29
M  V30 29 1 29 30
M  V30 30 1 29 31
M  V30 31 1 29 32
M  V30 32 1 7 9
M  V30 33 1 22 24
M  V30 34 2 26 27
M  V30 END BOND
M  V30 END CTAB
M  END
>  <Molecule ChEMBL ID>
CHEMBL210768

>  <Smiles>
CCCc1c(OCCCOc2ccc(CC(=O)O)cc2Cl)ccc2c(C(F)(F)F)noc12

>  <IC50_nM>
280

>  <Assay Description>
Inhibition of PPAR gamma

$$$$
CHEMBL394948
Actelion Java MolfileCreator 2.0

  0  0  0  0  0  0              0 V3000
M  V30 BEGIN CTAB
M  V30 COUNTS 42 46 0 0 0
M  V30 BEGIN ATOM
M  V30 1 O 5.1961 2.25 0.0 0
M  V30 2 C 3.8971 1.5 0.0 0
M  V30 3 O 2.598 2.25 0.0 0
M  V30 4 C 3.8971 0.0 0.0 0
M  V30 5 N 2.598 -0.75 0.0 0
M  V30 6 C 2.598 -2.25 0.0 0
M  V30 7 C 1.299 0.0 0.0 0
M  V30 8 C 3.8971 -3.0 0.0 0
M  V30 9 C 0.0 -0.75 0.0 0
M  V30 10 C 3.8971 -4.5 0.0 0
M  V30 11 C 5.1961 -2.25 0.0 0
M  V30 12 C -1.299 0.0 0.0 0
M  V30 13 C 0.0 -2.2499 0.0 0
M  V30 14 C 5.1961 -5.25 0.0 0
M  V30 15 C 6.4951 -2.9999 0.0 0
M  V30 16 C -2.598 -0.7499 0.0 0
M  V30 17 C -1.299 -2.9999 0.0 0
M  V30 18 C 6.4951 -4.5 0.0 0
M  V30 19 C -2.598 -2.2499 0.0 0
M  V30 20 O 7.7942 -5.25 0.0 0
M  V30 21 O -3.8971 -2.9999 0.0 0
M  V30 22 C 7.7942 -6.75 0.0 0
M  V30 23 C -3.8971 -4.4999 0.0 0
M  V30 24 C 9.0932 -7.5 0.0 0
M  V30 25 C -5.1961 -5.2499 0.0 0
M  V30 26 C 9.0932 -9.0 0.0 0
M  V30 27 C 10.3923 -6.75 0.0 0
M  V30 28 C -5.1961 -6.7499 0.0 0
M  V30 29 C 10.3923 -9.75 0.0 0
M  V30 30 C 11.6913 -7.5 0.0 0
M  V30 31 N -6.4096 -7.6316 0.0 0
M  V30 32 C -3.9826 -7.6316 0.0 0
M  V30 33 C 11.6913 -9.0 0.0 0
M  V30 34 C -5.9461 -9.0582 0.0 0
M  V30 35 O -4.4461 -9.0582 0.0 0
M  V30 36 C -2.556 -7.1681 0.0 0
M  V30 37 C -6.8278 -10.2717 0.0 0
M  V30 38 C -8.3196 -10.1149 0.0 0
M  V30 39 C -6.2177 -11.6421 0.0 0
M  V30 40 C -9.2012 -11.3285 0.0 0
M  V30 41 C -7.0994 -12.8556 0.0 0
M  V30 42 C -8.5911 -12.6988 0.0 0
M  V30 END ATOM
M  V30 BEGIN BOND
M  V30 1 2 1 2
M  V30 2 1 2 3
M  V30 3 1 2 4
M  V30 4 1 4 5
M  V30 5 1 5 6
M  V30 6 1 5 7
M  V30 7 1 6 8
M  V30 8 1 7 9
M  V30 9 2 8 10
M  V30 10 1 8 11
M  V30 11 2 9 12
M  V30 12 1 9 13
M  V30 13 1 10 14
M  V30 14 2 11 15
M  V30 15 1 12 16
M  V30 16 2 13 17
M  V30 17 2 14 18
M  V30 18 2 16 19
M  V30 19 1 18 20
M  V30 20 1 19 21
M  V30 21 1 20 22
M  V30 22 1 21 23
M  V30 23 1 22 24
M  V30 24 1 23 25
M  V30 25 2 24 26
M  V30 26 1 24 27
M  V30 27 1 25 28
M  V30 28 1 26 29
M  V30 29 2 27 30
M  V30 30 1 28 31
M  V30 31 2 28 32
M  V30 32 2 29 33
M  V30 33 2 31 34
M  V30 34 1 32 35
M  V30 35 1 32 36
M  V30 36 1 34 37
M  V30 37 2 37 38
M  V30 38 1 37 39
M  V30 39 1 38 40
M  V30 40 2 39 41
M  V30 41 2 40 42
M  V30 42 1 15 18
M  V30 43 1 17 19
M  V30 44 1 30 33
M  V30 45 1 34 35
M  V30 46 1 41 42
M  V30 END BOND
M  V30 END CTAB
M  END
>  <Molecule ChEMBL ID>
CHEMBL394948

>  <Smiles>
Cc1oc(-c2ccccc2)nc1CCOc1ccc(CN(CC(=O)O)Cc2ccc(OCc3ccccc3)cc2)cc1

>  <IC50_nM>
284

>  <Assay Description>
Displacement of fluorescein labeled ligand from PPARgamma receptor by fluorescence polarization assay

$$$$
CHEMBL3699440
Actelion Java MolfileCreator 2.0

  0  0  0  0  0  0              0 V3000
M  V30 BEGIN CTAB
M  V30 COUNTS 45 49 0 0 0
M  V30 BEGIN ATOM
M  V30 1 S 12.1682 -2.6158 0.0 0
M  V30 2 O 13.1193 -2.9248 0.0 0
M  V30 3 O 11.2172 -2.3068 0.0 0
M  V30 4 N 11.8592 -3.5669 0.0 0
M  V30 5 C 12.4773 -1.6648 0.0 0
M  V30 6 C 10.8811 -3.7748 0.0 0
M  V30 7 O 10.212 -3.0316 0.0 0
M  V30 8 C 10.5721 -4.7258 0.0 0
M  V30 9 C 9.5939 -4.9337 0.0 0
M  V30 10 C 11.2412 -5.469 0.0 0
M  V30 11 C 8.9248 -4.1906 0.0 0
M  V30 12 C 9.2849 -5.8848 0.0 0
M  V30 13 C 10.9322 -6.42 0.0 0
M  V30 14 C 9.2338 -3.2395 0.0 0
M  V30 15 C 7.9466 -4.3985 0.0 0
M  V30 16 C 9.954 -6.6279 0.0 0
M  V30 17 C 8.5647 -2.4964 0.0 0
M  V30 18 C 7.2775 -3.6554 0.0 0
M  V30 19 C 7.5865 -2.7043 0.0 0
M  V30 20 C 6.9174 -1.9612 0.0 0
M  V30 21 N 5.9392 -2.1691 0.0 0
M  V30 22 C 5.1961 -1.4999 0.0 0
M  V30 23 C 5.5325 -3.0826 0.0 0
M  V30 24 C 4.3301 -1.9999 0.0 0
M  V30 25 C 5.1961 -0.4999 0.0 0
M  V30 26 C 4.538 -2.9781 0.0 0
M  V30 27 C 6.0325 -3.9487 0.0 0
M  V30 28 C 3.4641 -1.5 0.0 0
M  V30 29 C 4.3301 0.0 0.0 0
M  V30 30 C 3.8689 -3.7212 0.0 0
M  V30 31 C 3.4641 -0.5 0.0 0
M  V30 32 C 2.598 0.0 0.0 0
M  V30 33 O 2.598 1.0 0.0 0
M  V30 34 N 1.732 -0.5 0.0 0
M  V30 35 C 0.866 0.0 0.0 0 CFG=2
M  V30 36 C 0.866 1.0 0.0 0
M  V30 37 C 0.0 -0.5 0.0 0
M  V30 38 C 1.732 1.5 0.0 0
M  V30 39 C 0.0 1.4999 0.0 0
M  V30 40 C 1.732 2.5 0.0 0
M  V30 41 C 0.0 2.5 0.0 0
M  V30 42 C 0.866 2.9999 0.0 0
M  V30 43 C 2.598 3.0 0.0 0
M  V30 44 C 3.4641 2.5 0.0 0
M  V30 45 C 2.598 4.0 0.0 0
M  V30 END ATOM
M  V30 BEGIN BOND
M  V30 1 2 1 2
M  V30 2 2 1 3
M  V30 3 1 1 4
M  V30 4 1 1 5
M  V30 5 1 4 6
M  V30 6 2 6 7
M  V30 7 1 6 8
M  V30 8 2 8 9
M  V30 9 1 8 10
M  V30 10 1 9 11
M  V30 11 1 9 12
M  V30 12 2 10 13
M  V30 13 2 11 14
M  V30 14 1 11 15
M  V30 15 2 12 16
M  V30 16 1 14 17
M  V30 17 2 15 18
M  V30 18 2 17 19
M  V30 19 1 19 20
M  V30 20 1 20 21
M  V30 21 1 21 22
M  V30 22 1 21 23
M  V30 23 2 22 24
M  V30 24 1 22 25
M  V30 25 2 23 26
M  V30 26 1 23 27
M  V30 27 1 24 28
M  V30 28 2 25 29
M  V30 29 1 26 30
M  V30 30 2 28 31
M  V30 31 1 31 32
M  V30 32 2 32 33
M  V30 33 1 32 34
M  V30 34 1 34 35
M  V30 35 1 35 36
M  V30 36 1 35 37 CFG=1
M  V30 37 2 36 38
M  V30 38 1 36 39
M  V30 39 1 38 40
M  V30 40 2 39 41
M  V30 41 2 40 42
M  V30 42 1 40 43
M  V30 43 1 43 44
M  V30 44 1 43 45
M  V30 45 1 13 16
M  V30 46 1 18 19
M  V30 47 1 24 26
M  V30 48 1 29 31
M  V30 49 1 41 42
M  V30 END BOND
M  V30 BEGIN COLLECTION
M  V30 MDLV30/STEABS ATOMS=(1 35)
M  V30 END COLLECTION
M  V30 END CTAB
M  END
>  <Molecule ChEMBL ID>
CHEMBL3699440

>  <Smiles>
Cc1c(C)n(Cc2ccc(-c3ccccc3C(=O)NS(C)(=O)=O)cc2)c2ccc(C(=O)N[C@@H](C)c3cccc(C(C)C)c3)cc12

>  <IC50_nM>
285

>  <Assay Description>
Lanthascreen Competitive Binding Assay: The assay was performed according to manufacturer protocol. A mixture of nM GST-PPARG-LBD, 5 nM Tb-GST-antibody, 5 nM Fluormone Pan-PPAR Green, and serial dilutions of the experimental compound, beginning at 10 ׬M downwards, was added to wells of black 384-well low-volume plates (Greiner) to a total volume of 18 ׬L. All dilutions were made in TR-FRET assay buffer C. DMSO at 2% final concentration was used as a no-ligand control. Experiment was performed in triplicate, and incubated for 2 hours in the dark prior to assay read in Perkin Elmer ViewLux ultra HTS microplate reader. FRET signal was measured by excitation at 340 nm and emission at 520 nm for fluorescein and 490 nm for terbium. Fold change over DMSO was calculated using GraphPad Prism Software (La Jolla, Calif.) by calculating 520 nm/490 nm ratio. Graphs were plotted as fold change of FRET signal for compound treatment over DMSO-only control.

$$$$
CHEMBL2037007
Actelion Java MolfileCreator 2.0

  0  0  0  0  0  0              0 V3000
M  V30 BEGIN CTAB
M  V30 COUNTS 35 38 0 0 0
M  V30 BEGIN ATOM
M  V30 1 O 2.598 -2.0 0.0 0
M  V30 2 C 1.732 -1.5 0.0 0
M  V30 3 O 0.866 -2.0 0.0 0
M  V30 4 C 1.732 -0.5 0.0 0 CFG=1
M  V30 5 O 2.598 0.0 0.0 0
M  V30 6 C 2.598 -0.9999 0.0 0
M  V30 7 C 0.866 0.0 0.0 0
M  V30 8 C 2.598 1.0 0.0 0
M  V30 9 C 3.4641 -0.5 0.0 0
M  V30 10 C 0.866 0.9999 0.0 0
M  V30 11 C 1.732 1.4999 0.0 0
M  V30 12 C 3.4641 1.5 0.0 0
M  V30 13 C 4.3301 -1.0 0.0 0
M  V30 14 C 3.4641 0.4999 0.0 0
M  V30 15 C 1.732 2.4999 0.0 0
M  V30 16 C 3.4641 2.5 0.0 0
M  V30 17 C 5.1961 -0.5 0.0 0
M  V30 18 C 4.3301 0.9999 0.0 0
M  V30 19 C 2.598 2.9999 0.0 0
M  V30 20 C 5.1961 0.4999 0.0 0
M  V30 21 O 6.0621 0.9999 0.0 0
M  V30 22 C 6.0621 1.9999 0.0 0
M  V30 23 C 6.9282 2.4999 0.0 0
M  V30 24 C 6.9282 3.4999 0.0 0
M  V30 25 N 7.7372 4.0877 0.0 0
M  V30 26 C 6.1191 4.0877 0.0 0
M  V30 27 C 7.4282 5.0388 0.0 0
M  V30 28 O 6.4282 5.0388 0.0 0
M  V30 29 C 5.1681 3.7787 0.0 0
M  V30 30 C 8.0159 5.8478 0.0 0
M  V30 31 C 9.0105 5.7433 0.0 0
M  V30 32 C 7.6092 6.7614 0.0 0
M  V30 33 C 9.5982 6.5523 0.0 0
M  V30 34 C 8.197 7.5704 0.0 0
M  V30 35 C 9.1915 7.4658 0.0 0
M  V30 END ATOM
M  V30 BEGIN BOND
M  V30 1 2 1 2
M  V30 2 1 2 3
M  V30 3 1 2 4
M  V30 4 1 4 5
M  V30 5 1 4 6 CFG=3
M  V30 6 1 4 7
M  V30 7 1 5 8
M  V30 8 1 6 9
M  V30 9 1 7 10
M  V30 10 2 8 11
M  V30 11 1 8 12
M  V30 12 2 9 13
M  V30 13 1 9 14
M  V30 14 1 11 15
M  V30 15 2 12 16
M  V30 16 1 13 17
M  V30 17 2 14 18
M  V30 18 2 15 19
M  V30 19 2 17 20
M  V30 20 1 20 21
M  V30 21 1 21 22
M  V30 22 1 22 23
M  V30 23 1 23 24
M  V30 24 1 24 25
M  V30 25 2 24 26
M  V30 26 2 25 27
M  V30 27 1 26 28
M  V30 28 1 26 29
M  V30 29 1 27 30
M  V30 30 2 30 31
M  V30 31 1 30 32
M  V30 32 1 31 33
M  V30 33 2 32 34
M  V30 34 2 33 35
M  V30 35 1 16 19
M  V30 36 1 18 20
M  V30 37 1 27 28
M  V30 38 1 34 35
M  V30 END BOND
M  V30 BEGIN COLLECTION
M  V30 MDLV30/STEABS ATOMS=(1 4)
M  V30 END COLLECTION
M  V30 END CTAB
M  END
>  <Molecule ChEMBL ID>
CHEMBL2037007

>  <Smiles>
CC[C@@](Cc1ccc(OCCc2nc(-c3ccccc3)oc2C)cc1)(Oc1ccccc1)C(=O)O

>  <IC50_nM>
289.73

>  <Assay Description>
Agonist activity at PPARgamma

$$$$
CHEMBL374189
Actelion Java MolfileCreator 2.0

  0  0  0  0  0  0              0 V3000
M  V30 BEGIN CTAB
M  V30 COUNTS 32 35 0 0 0
M  V30 BEGIN ATOM
M  V30 1 S 3.8971 0.0 0.0 0
M  V30 2 O 4.6471 1.299 0.0 0
M  V30 3 O 3.1471 1.299 0.0 0
M  V30 4 N 2.598 -0.75 0.0 0
M  V30 5 C 5.1961 -0.75 0.0 0
M  V30 6 C 1.299 0.0 0.0 0
M  V30 7 C 5.1961 -2.25 0.0 0
M  V30 8 C 6.4951 0.0 0.0 0
M  V30 9 O 1.299 1.5 0.0 0
M  V30 10 C 0.0 -0.75 0.0 0
M  V30 11 C 6.4951 -3.0 0.0 0
M  V30 12 C 7.7942 -0.75 0.0 0
M  V30 13 N -1.3703 -0.1398 0.0 0
M  V30 14 C -0.1567 -2.2417 0.0 0
M  V30 15 C 7.7942 -2.25 0.0 0
M  V30 16 C -2.374 -1.2546 0.0 0
M  V30 17 C -1.6821 1.3273 0.0 0
M  V30 18 C -1.624 -2.5536 0.0 0
M  V30 19 C -3.874 -1.2546 0.0 0
M  V30 20 C -3.1087 1.7908 0.0 0
M  V30 21 C -2.374 -3.8526 0.0 0
M  V30 22 C -4.624 -2.5536 0.0 0
M  V30 23 C -3.4206 3.258 0.0 0
M  V30 24 C -4.2234 0.7871 0.0 0
M  V30 25 C -3.874 -3.8526 0.0 0
M  V30 26 C -4.8472 3.7216 0.0 0
M  V30 27 C -5.65 1.2506 0.0 0
M  V30 28 C -5.9619 2.7179 0.0 0
M  V30 29 C -5.159 5.1888 0.0 0
M  V30 30 F -6.6263 4.8769 0.0 0
M  V30 31 F -5.4709 6.656 0.0 0
M  V30 32 F -3.6918 5.5006 0.0 0
M  V30 END ATOM
M  V30 BEGIN BOND
M  V30 1 2 1 2
M  V30 2 2 1 3
M  V30 3 1 1 4
M  V30 4 1 1 5
M  V30 5 1 4 6
M  V30 6 2 5 7
M  V30 7 1 5 8
M  V30 8 2 6 9
M  V30 9 1 6 10
M  V30 10 1 7 11
M  V30 11 2 8 12
M  V30 12 1 10 13
M  V30 13 2 10 14
M  V30 14 2 11 15
M  V30 15 1 13 16
M  V30 16 1 13 17
M  V30 17 1 14 18
M  V30 18 1 16 19
M  V30 19 1 17 20
M  V30 20 1 18 21
M  V30 21 2 19 22
M  V30 22 2 20 23
M  V30 23 1 20 24
M  V30 24 2 21 25
M  V30 25 1 23 26
M  V30 26 2 24 27
M  V30 27 2 26 28
M  V30 28 1 26 29
M  V30 29 1 29 30
M  V30 30 1 29 31
M  V30 31 1 29 32
M  V30 32 1 12 15
M  V30 33 2 16 18
M  V30 34 1 22 25
M  V30 35 1 27 28
M  V30 END BOND
M  V30 END CTAB
M  END
>  <Molecule ChEMBL ID>
CHEMBL374189

>  <Smiles>
O=C(NS(=O)(=O)c1ccccc1)c1cc2ccccc2n1Cc1cccc(C(F)(F)F)c1

>  <IC50_nM>
290

>  <Assay Description>
Displacement of Fluormone from PPAR gamma

$$$$
CHEMBL78529
Actelion Java MolfileCreator 2.0

  0  0  0  0  0  0              0 V3000
M  V30 BEGIN CTAB
M  V30 COUNTS 35 38 0 0 0
M  V30 BEGIN ATOM
M  V30 1 O 2.598 -2.0 0.0 0
M  V30 2 C 1.732 -1.5 0.0 0
M  V30 3 O 0.866 -2.0 0.0 0
M  V30 4 C 1.732 -0.5 0.0 0 CFG=1
M  V30 5 O 2.598 0.0 0.0 0
M  V30 6 C 2.598 -0.9999 0.0 0
M  V30 7 C 0.866 0.0 0.0 0
M  V30 8 C 2.598 1.0 0.0 0
M  V30 9 C 3.4641 -0.5 0.0 0
M  V30 10 C 0.866 0.9999 0.0 0
M  V30 11 C 1.732 1.4999 0.0 0
M  V30 12 C 3.4641 1.5 0.0 0
M  V30 13 C 4.3301 -1.0 0.0 0
M  V30 14 C 3.4641 0.4999 0.0 0
M  V30 15 C 1.732 2.4999 0.0 0
M  V30 16 C 3.4641 2.5 0.0 0
M  V30 17 C 5.1961 -0.5 0.0 0
M  V30 18 C 4.3301 0.9999 0.0 0
M  V30 19 C 2.598 2.9999 0.0 0
M  V30 20 C 5.1961 0.4999 0.0 0
M  V30 21 O 6.0621 0.9999 0.0 0
M  V30 22 C 6.0621 1.9999 0.0 0
M  V30 23 C 6.9282 2.4999 0.0 0
M  V30 24 C 6.9282 3.4999 0.0 0
M  V30 25 N 7.7372 4.0877 0.0 0
M  V30 26 C 6.1191 4.0877 0.0 0
M  V30 27 C 7.4282 5.0388 0.0 0
M  V30 28 O 6.4282 5.0388 0.0 0
M  V30 29 C 5.1681 3.7787 0.0 0
M  V30 30 C 8.0159 5.8478 0.0 0
M  V30 31 C 9.0105 5.7433 0.0 0
M  V30 32 C 7.6092 6.7614 0.0 0
M  V30 33 C 9.5982 6.5523 0.0 0
M  V30 34 C 8.197 7.5704 0.0 0
M  V30 35 C 9.1915 7.4658 0.0 0
M  V30 END ATOM
M  V30 BEGIN BOND
M  V30 1 2 1 2
M  V30 2 1 2 3
M  V30 3 1 2 4
M  V30 4 1 4 5
M  V30 5 1 4 6 CFG=3
M  V30 6 1 4 7
M  V30 7 1 5 8
M  V30 8 1 6 9
M  V30 9 1 7 10
M  V30 10 2 8 11
M  V30 11 1 8 12
M  V30 12 2 9 13
M  V30 13 1 9 14
M  V30 14 1 11 15
M  V30 15 2 12 16
M  V30 16 1 13 17
M  V30 17 2 14 18
M  V30 18 2 15 19
M  V30 19 2 17 20
M  V30 20 1 20 21
M  V30 21 1 21 22
M  V30 22 1 22 23
M  V30 23 1 23 24
M  V30 24 1 24 25
M  V30 25 2 24 26
M  V30 26 2 25 27
M  V30 27 1 26 28
M  V30 28 1 26 29
M  V30 29 1 27 30
M  V30 30 2 30 31
M  V30 31 1 30 32
M  V30 32 1 31 33
M  V30 33 2 32 34
M  V30 34 2 33 35
M  V30 35 1 16 19
M  V30 36 1 18 20
M  V30 37 1 27 28
M  V30 38 1 34 35
M  V30 END BOND
M  V30 BEGIN COLLECTION
M  V30 MDLV30/STERAC1 ATOMS=(1 4)
M  V30 END COLLECTION
M  V30 END CTAB
M  END
>  <Molecule ChEMBL ID>
CHEMBL78529

>  <Smiles>
CCC(Cc1ccc(OCCc2nc(-c3ccccc3)oc2C)cc1)(Oc1ccccc1)C(=O)O

>  <IC50_nM>
290

>  <Assay Description>
Displacement of PPARgamma agonist from human PPAR gamma receptor

$$$$
CHEMBL220475
Actelion Java MolfileCreator 2.0

  0  0  0  0  0  0              0 V3000
M  V30 BEGIN CTAB
M  V30 COUNTS 33 36 0 0 0
M  V30 BEGIN ATOM
M  V30 1 S 3.8971 0.0 0.0 0
M  V30 2 O 4.6471 1.299 0.0 0
M  V30 3 O 3.1471 1.299 0.0 0
M  V30 4 N 2.598 -0.75 0.0 0
M  V30 5 C 5.1961 -0.75 0.0 0
M  V30 6 C 1.299 0.0 0.0 0
M  V30 7 C 5.1961 -2.25 0.0 0
M  V30 8 C 6.4951 0.0 0.0 0
M  V30 9 O 1.299 1.5 0.0 0
M  V30 10 C 0.0 -0.75 0.0 0
M  V30 11 C 6.4951 -3.0 0.0 0
M  V30 12 C 7.7942 -0.75 0.0 0
M  V30 13 N -1.3703 -0.1398 0.0 0
M  V30 14 C -0.1567 -2.2417 0.0 0
M  V30 15 C 7.7942 -2.25 0.0 0
M  V30 16 C -2.374 -1.2546 0.0 0
M  V30 17 C -1.6821 1.3273 0.0 0
M  V30 18 C -1.624 -2.5536 0.0 0
M  V30 19 C 9.0932 -3.0 0.0 0
M  V30 20 C -3.874 -1.2546 0.0 0
M  V30 21 C -3.1087 1.7908 0.0 0
M  V30 22 C -2.374 -3.8526 0.0 0
M  V30 23 C -4.624 -2.5536 0.0 0
M  V30 24 C -3.4206 3.258 0.0 0
M  V30 25 C -4.2234 0.7871 0.0 0
M  V30 26 C -3.874 -3.8526 0.0 0
M  V30 27 C -4.8472 3.7216 0.0 0
M  V30 28 C -5.65 1.2506 0.0 0
M  V30 29 C -5.9619 2.7179 0.0 0
M  V30 30 C -5.159 5.1888 0.0 0
M  V30 31 F -6.6263 4.8769 0.0 0
M  V30 32 F -5.4709 6.656 0.0 0
M  V30 33 F -3.6918 5.5006 0.0 0
M  V30 END ATOM
M  V30 BEGIN BOND
M  V30 1 2 1 2
M  V30 2 2 1 3
M  V30 3 1 1 4
M  V30 4 1 1 5
M  V30 5 1 4 6
M  V30 6 2 5 7
M  V30 7 1 5 8
M  V30 8 2 6 9
M  V30 9 1 6 10
M  V30 10 1 7 11
M  V30 11 2 8 12
M  V30 12 1 10 13
M  V30 13 2 10 14
M  V30 14 2 11 15
M  V30 15 1 13 16
M  V30 16 1 13 17
M  V30 17 1 14 18
M  V30 18 1 15 19
M  V30 19 1 16 20
M  V30 20 1 17 21
M  V30 21 1 18 22
M  V30 22 2 20 23
M  V30 23 2 21 24
M  V30 24 1 21 25
M  V30 25 2 22 26
M  V30 26 1 24 27
M  V30 27 2 25 28
M  V30 28 2 27 29
M  V30 29 1 27 30
M  V30 30 1 30 31
M  V30 31 1 30 32
M  V30 32 1 30 33
M  V30 33 1 12 15
M  V30 34 2 16 18
M  V30 35 1 23 26
M  V30 36 1 28 29
M  V30 END BOND
M  V30 END CTAB
M  END
>  <Molecule ChEMBL ID>
CHEMBL220475

>  <Smiles>
Cc1ccc(S(=O)(=O)NC(=O)c2cc3ccccc3n2Cc2cccc(C(F)(F)F)c2)cc1

>  <IC50_nM>
290

>  <Assay Description>
Displacement of Fluormone from PPAR gamma

$$$$
CHEMBL1783040
Actelion Java MolfileCreator 2.0

  0  0  0  0  0  0              0 V3000
M  V30 BEGIN CTAB
M  V30 COUNTS 38 41 0 0 0
M  V30 BEGIN ATOM
M  V30 1 S 8.7077 -0.4067 0.0 0
M  V30 2 C 9.3769 0.3364 0.0 0
M  V30 3 C 7.7942 0.0 0.0 0 CFG=1
M  V30 4 O 10.3714 0.2318 0.0 0
M  V30 5 N 8.8769 1.2024 0.0 0
M  V30 6 C 6.9282 -0.5 0.0 0
M  V30 7 C 7.8987 0.9945 0.0 0
M  V30 8 C 6.0621 0.0 0.0 0
M  V30 9 C 6.9282 -1.5 0.0 0
M  V30 10 O 7.1556 1.6636 0.0 0
M  V30 11 C 5.1961 -0.5 0.0 0
M  V30 12 C 6.0621 -2.0 0.0 0
M  V30 13 O 4.3301 0.0 0.0 0
M  V30 14 C 5.1961 -1.5 0.0 0
M  V30 15 C 3.4641 -0.5 0.0 0
M  V30 16 C 2.598 0.0 0.0 0
M  V30 17 C 1.732 -0.5 0.0 0
M  V30 18 O 0.866 0.0 0.0 0
M  V30 19 C 0.0 -0.5 0.0 0
M  V30 20 C -0.866 0.0 0.0 0
M  V30 21 C 0.0 -1.4999 0.0 0
M  V30 22 C -1.732 -0.4999 0.0 0
M  V30 23 C -0.866 1.0 0.0 0
M  V30 24 C -0.866 -1.9999 0.0 0
M  V30 25 C -1.732 -1.4999 0.0 0
M  V30 26 C 0.0 1.5 0.0 0
M  V30 27 O -2.598 -1.9999 0.0 0
M  V30 28 C 0.0 2.5 0.0 0
M  V30 29 C -2.598 -2.9999 0.0 0
M  V30 30 C -3.4641 -3.4999 0.0 0
M  V30 31 C -1.732 -3.4999 0.0 0
M  V30 32 C -3.4641 -4.4999 0.0 0
M  V30 33 C -1.732 -4.4999 0.0 0
M  V30 34 C -2.598 -4.9999 0.0 0
M  V30 35 C -2.598 -5.9999 0.0 0
M  V30 36 C -3.4641 -6.4999 0.0 0
M  V30 37 C -4.3301 -5.9999 0.0 0
M  V30 38 C -3.4641 -7.4999 0.0 0
M  V30 END ATOM
M  V30 BEGIN BOND
M  V30 1 1 1 2
M  V30 2 1 1 3
M  V30 3 2 2 4
M  V30 4 1 2 5
M  V30 5 1 3 6 CFG=1
M  V30 6 1 3 7
M  V30 7 2 6 8
M  V30 8 1 6 9
M  V30 9 2 7 10
M  V30 10 1 8 11
M  V30 11 2 9 12
M  V30 12 1 11 13
M  V30 13 2 11 14
M  V30 14 1 13 15
M  V30 15 1 15 16
M  V30 16 1 16 17
M  V30 17 1 17 18
M  V30 18 1 18 19
M  V30 19 2 19 20
M  V30 20 1 19 21
M  V30 21 1 20 22
M  V30 22 1 20 23
M  V30 23 2 21 24
M  V30 24 2 22 25
M  V30 25 1 23 26
M  V30 26 1 25 27
M  V30 27 1 26 28
M  V30 28 1 27 29
M  V30 29 2 29 30
M  V30 30 1 29 31
M  V30 31 1 30 32
M  V30 32 2 31 33
M  V30 33 2 32 34
M  V30 34 1 34 35
M  V30 35 1 35 36
M  V30 36 1 36 37
M  V30 37 1 36 38
M  V30 38 1 5 7
M  V30 39 1 12 14
M  V30 40 1 24 25
M  V30 41 1 33 34
M  V30 END BOND
M  V30 BEGIN COLLECTION
M  V30 MDLV30/STEABS ATOMS=(1 3)
M  V30 END COLLECTION
M  V30 END CTAB
M  END
>  <Molecule ChEMBL ID>
CHEMBL1783040

>  <Smiles>
CCCc1cc(Oc2ccc(CC(C)C)cc2)ccc1OCCCOc1cccc([C@@H]2SC(=O)NC2=O)c1

>  <IC50_nM>
291

>  <Assay Description>
Displacement of radio-labeled full agonist from PPARgamma receptor

$$$$
CHEMBL327767
Actelion Java MolfileCreator 2.0

  0  0  0  0  0  0              0 V3000
M  V30 BEGIN CTAB
M  V30 COUNTS 38 41 0 0 0
M  V30 BEGIN ATOM
M  V30 1 S 8.7077 -0.4067 0.0 0
M  V30 2 C 9.3769 0.3364 0.0 0
M  V30 3 C 7.7942 0.0 0.0 0 CFG=2
M  V30 4 O 10.3714 0.2318 0.0 0
M  V30 5 N 8.8769 1.2024 0.0 0
M  V30 6 C 6.9282 -0.5 0.0 0
M  V30 7 C 7.8987 0.9945 0.0 0
M  V30 8 C 6.0621 0.0 0.0 0
M  V30 9 C 6.9282 -1.5 0.0 0
M  V30 10 O 7.1556 1.6636 0.0 0
M  V30 11 C 5.1961 -0.5 0.0 0
M  V30 12 C 6.0621 -2.0 0.0 0
M  V30 13 O 4.3301 0.0 0.0 0
M  V30 14 C 5.1961 -1.5 0.0 0
M  V30 15 C 3.4641 -0.5 0.0 0
M  V30 16 C 2.598 0.0 0.0 0
M  V30 17 C 1.732 -0.5 0.0 0
M  V30 18 O 0.866 0.0 0.0 0
M  V30 19 C 0.0 -0.5 0.0 0
M  V30 20 C -0.866 0.0 0.0 0
M  V30 21 C 0.0 -1.4999 0.0 0
M  V30 22 C -1.732 -0.4999 0.0 0
M  V30 23 C -0.866 1.0 0.0 0
M  V30 24 C -0.866 -1.9999 0.0 0
M  V30 25 C -1.732 -1.4999 0.0 0
M  V30 26 C 0.0 1.5 0.0 0
M  V30 27 O -2.598 -1.9999 0.0 0
M  V30 28 C 0.0 2.5 0.0 0
M  V30 29 C -2.598 -2.9999 0.0 0
M  V30 30 C -3.4641 -3.4999 0.0 0
M  V30 31 C -1.732 -3.4999 0.0 0
M  V30 32 C -3.4641 -4.4999 0.0 0
M  V30 33 C -1.732 -4.4999 0.0 0
M  V30 34 C -2.598 -4.9999 0.0 0
M  V30 35 C -2.598 -5.9999 0.0 0
M  V30 36 C -3.4641 -6.4999 0.0 0
M  V30 37 C -4.3301 -5.9999 0.0 0
M  V30 38 C -3.4641 -7.4999 0.0 0
M  V30 END ATOM
M  V30 BEGIN BOND
M  V30 1 1 1 2
M  V30 2 1 1 3
M  V30 3 2 2 4
M  V30 4 1 2 5
M  V30 5 1 3 6 CFG=3
M  V30 6 1 3 7
M  V30 7 2 6 8
M  V30 8 1 6 9
M  V30 9 2 7 10
M  V30 10 1 8 11
M  V30 11 2 9 12
M  V30 12 1 11 13
M  V30 13 2 11 14
M  V30 14 1 13 15
M  V30 15 1 15 16
M  V30 16 1 16 17
M  V30 17 1 17 18
M  V30 18 1 18 19
M  V30 19 2 19 20
M  V30 20 1 19 21
M  V30 21 1 20 22
M  V30 22 1 20 23
M  V30 23 2 21 24
M  V30 24 2 22 25
M  V30 25 1 23 26
M  V30 26 1 25 27
M  V30 27 1 26 28
M  V30 28 1 27 29
M  V30 29 2 29 30
M  V30 30 1 29 31
M  V30 31 1 30 32
M  V30 32 2 31 33
M  V30 33 2 32 34
M  V30 34 1 34 35
M  V30 35 1 35 36
M  V30 36 1 36 37
M  V30 37 1 36 38
M  V30 38 1 5 7
M  V30 39 1 12 14
M  V30 40 1 24 25
M  V30 41 1 33 34
M  V30 END BOND
M  V30 BEGIN COLLECTION
M  V30 MDLV30/STERAC1 ATOMS=(1 3)
M  V30 END COLLECTION
M  V30 END CTAB
M  END
>  <Molecule ChEMBL ID>
CHEMBL327767

>  <Smiles>
CCCc1cc(Oc2ccc(CC(C)C)cc2)ccc1OCCCOc1cccc(C2SC(=O)NC2=O)c1

>  <IC50_nM>
291

>  <Assay Description>
In vitro binding affinity against human peroxisome proliferator activated receptor gamma

$$$$
CHEMBL3678083
Actelion Java MolfileCreator 2.0

  0  0  0  0  0  0              0 V3000
M  V30 BEGIN CTAB
M  V30 COUNTS 32 35 0 0 0
M  V30 BEGIN ATOM
M  V30 1 F 8.8737 -1.5453 0.0 0
M  V30 2 C 8.5647 -2.4964 0.0 0
M  V30 3 C 7.5865 -2.7043 0.0 0
M  V30 4 C 9.2338 -3.2395 0.0 0
M  V30 5 C 7.2775 -3.6554 0.0 0
M  V30 6 C 6.9174 -1.9612 0.0 0
M  V30 7 C 8.9248 -4.1906 0.0 0
M  V30 8 C 7.9466 -4.3985 0.0 0
M  V30 9 N 5.9392 -2.1691 0.0 0
M  V30 10 F 9.5939 -4.9337 0.0 0
M  V30 11 C 5.1961 -1.4999 0.0 0
M  V30 12 C 5.5325 -3.0826 0.0 0
M  V30 13 C 4.3301 -1.9999 0.0 0
M  V30 14 C 5.1961 -0.4999 0.0 0
M  V30 15 C 4.538 -2.9781 0.0 0
M  V30 16 C 3.4641 -1.5 0.0 0
M  V30 17 C 4.3301 0.0 0.0 0
M  V30 18 C 3.4641 -0.5 0.0 0
M  V30 19 C 2.598 0.0 0.0 0
M  V30 20 O 2.598 1.0 0.0 0
M  V30 21 N 1.732 -0.5 0.0 0
M  V30 22 C 0.866 0.0 0.0 0 CFG=2
M  V30 23 C 0.866 1.0 0.0 0
M  V30 24 C 0.0 -0.5 0.0 0
M  V30 25 C 1.732 1.5 0.0 0
M  V30 26 C 0.0 1.4999 0.0 0
M  V30 27 C 1.732 2.4999 0.0 0
M  V30 28 C 0.0 2.4999 0.0 0
M  V30 29 C 0.866 2.9999 0.0 0
M  V30 30 N 0.866 3.9999 0.0 0 CHG=1
M  V30 31 O 1.732 4.5 0.0 0
M  V30 32 O 0.0 4.5 0.0 0 CHG=-1
M  V30 END ATOM
M  V30 BEGIN BOND
M  V30 1 1 1 2
M  V30 2 2 2 3
M  V30 3 1 2 4
M  V30 4 1 3 5
M  V30 5 1 3 6
M  V30 6 2 4 7
M  V30 7 2 5 8
M  V30 8 1 6 9
M  V30 9 1 7 10
M  V30 10 1 9 11
M  V30 11 1 9 12
M  V30 12 2 11 13
M  V30 13 1 11 14
M  V30 14 2 12 15
M  V30 15 1 13 16
M  V30 16 2 14 17
M  V30 17 2 16 18
M  V30 18 1 18 19
M  V30 19 2 19 20
M  V30 20 1 19 21
M  V30 21 1 21 22
M  V30 22 1 22 23
M  V30 23 1 22 24 CFG=1
M  V30 24 2 23 25
M  V30 25 1 23 26
M  V30 26 1 25 27
M  V30 27 2 26 28
M  V30 28 2 27 29
M  V30 29 1 29 30
M  V30 30 2 30 31
M  V30 31 1 30 32
M  V30 32 1 7 8
M  V30 33 1 13 15
M  V30 34 1 17 18
M  V30 35 1 28 29
M  V30 END BOND
M  V30 BEGIN COLLECTION
M  V30 MDLV30/STEABS ATOMS=(1 22)
M  V30 END COLLECTION
M  V30 END CTAB
M  END
>  <Molecule ChEMBL ID>
CHEMBL3678083

>  <Smiles>
C[C@H](NC(=O)c1ccc2c(ccn2Cc2ccc(F)cc2F)c1)c1ccc([N+](=O)[O-])cc1

>  <IC50_nM>
292

>  <Assay Description>
Lanthascreen Competitive Binding Assay: The assay was performed according to manufacturer protocol. A mixture of 5 nM GST-PPARG-LBD, 5 nM Tb-GST-antibody, 5 nM Fluormone Pan- PPAR Green, and serial dilutions of the experimental compound, beginning at 10 ׬� downwards, was added to wells of black 384-well low- volume plates (Greiner) to a total volume of 18 xL. All dilutions were made in TR-FRET assay buffer C. DMSO at 2% final concentration was used as a no-ligand control. Experiment was performed in triplicate, and incubated for 2 hours in the dark prior to assay read in Perkin Elmer ViewLux ultra HTS microplate reader. FRET signal was measured by excitation at 340 nm and emission at 520 nm for fluorescein and 490 nm for terbium.

$$$$
CHEMBL121
Actelion Java MolfileCreator 2.0

  0  0  0  0  0  0              0 V3000
M  V30 BEGIN CTAB
M  V30 COUNTS 25 27 0 0 0
M  V30 BEGIN ATOM
M  V30 1 S 7.8987 0.0054 0.0 0
M  V30 2 C 8.8769 -0.2024 0.0 0
M  V30 3 C 7.7942 0.9999 0.0 0 CFG=2
M  V30 4 O 9.2836 -1.1159 0.0 0
M  V30 5 N 9.3769 0.6635 0.0 0
M  V30 6 C 8.7077 1.4067 0.0 0
M  V30 7 C 6.9282 1.4999 0.0 0
M  V30 8 O 8.9156 2.3848 0.0 0
M  V30 9 C 6.0621 0.9999 0.0 0
M  V30 10 C 5.1961 1.4999 0.0 0
M  V30 11 C 6.0621 0.0 0.0 0
M  V30 12 C 4.3301 0.9999 0.0 0
M  V30 13 C 5.1961 -0.5 0.0 0
M  V30 14 C 4.3301 0.0 0.0 0
M  V30 15 O 3.4641 -0.5 0.0 0
M  V30 16 C 2.598 0.0 0.0 0
M  V30 17 C 1.732 -0.5 0.0 0
M  V30 18 N 0.866 0.0 0.0 0
M  V30 19 C 0.866 1.0 0.0 0
M  V30 20 C 0.0 -0.5 0.0 0
M  V30 21 N 1.732 1.4999 0.0 0
M  V30 22 C 0.0 1.4999 0.0 0
M  V30 23 C 1.732 2.5 0.0 0
M  V30 24 C 0.0 2.5 0.0 0
M  V30 25 C 0.866 3.0 0.0 0
M  V30 END ATOM
M  V30 BEGIN BOND
M  V30 1 1 1 2
M  V30 2 1 1 3
M  V30 3 2 2 4
M  V30 4 1 2 5
M  V30 5 1 3 6
M  V30 6 1 3 7 CFG=1
M  V30 7 2 6 8
M  V30 8 1 7 9
M  V30 9 2 9 10
M  V30 10 1 9 11
M  V30 11 1 10 12
M  V30 12 2 11 13
M  V30 13 2 12 14
M  V30 14 1 14 15
M  V30 15 1 15 16
M  V30 16 1 16 17
M  V30 17 1 17 18
M  V30 18 1 18 19
M  V30 19 1 18 20
M  V30 20 2 19 21
M  V30 21 1 19 22
M  V30 22 1 21 23
M  V30 23 2 22 24
M  V30 24 2 23 25
M  V30 25 1 5 6
M  V30 26 1 13 14
M  V30 27 1 24 25
M  V30 END BOND
M  V30 BEGIN COLLECTION
M  V30 MDLV30/STERAC1 ATOMS=(1 3)
M  V30 END COLLECTION
M  V30 END CTAB
M  END
>  <Molecule ChEMBL ID>
CHEMBL121

>  <Smiles>
CN(CCOc1ccc(CC2SC(=O)NC2=O)cc1)c1ccccn1

>  <IC50_nM>
292

>  <Assay Description>
Displacement of fluormone-PPARgamma Green from recombinant human N-terminal GST-tagged PPARgamma-LBD by fluorescence polarization assay

$$$$
CHEMBL478725
Actelion Java MolfileCreator 2.0

  0  0  0  0  0  0              0 V3000
M  V30 BEGIN CTAB
M  V30 COUNTS 31 34 0 0 0
M  V30 BEGIN ATOM
M  V30 1 O 3.4641 -0.5 0.0 0
M  V30 2 C 2.598 0.0 0.0 0
M  V30 3 O 2.598 1.0 0.0 0
M  V30 4 C 1.732 -0.5 0.0 0 CFG=1
M  V30 5 N 1.732 -1.5 0.0 0
M  V30 6 C 0.866 0.0 0.0 0
M  V30 7 C 0.923 -2.0877 0.0 0
M  V30 8 C 2.541 -2.0877 0.0 0
M  V30 9 C 0.0 -0.5 0.0 0
M  V30 10 C 1.232 -3.0388 0.0 0
M  V30 11 C 2.232 -3.0388 0.0 0
M  V30 12 C -0.866 0.0 0.0 0
M  V30 13 C 0.0 -1.4999 0.0 0
M  V30 14 C -1.732 -0.4999 0.0 0
M  V30 15 C -0.866 -1.9999 0.0 0
M  V30 16 C -1.732 -1.4999 0.0 0
M  V30 17 C -2.598 -1.9999 0.0 0
M  V30 18 C -3.4641 -2.4999 0.0 0
M  V30 19 C -4.3301 -2.9999 0.0 0
M  V30 20 C -4.3301 -3.9999 0.0 0
M  V30 21 N -5.1391 -4.5877 0.0 0
M  V30 22 C -3.5211 -4.5877 0.0 0
M  V30 23 C -4.8301 -5.5388 0.0 0
M  V30 24 O -3.8301 -5.5388 0.0 0
M  V30 25 C -2.57 -4.2787 0.0 0
M  V30 26 C -5.4179 -6.3478 0.0 0
M  V30 27 C -6.4124 -6.2433 0.0 0
M  V30 28 C -5.0111 -7.2614 0.0 0
M  V30 29 C -7.0002 -7.0523 0.0 0
M  V30 30 C -5.5989 -8.0704 0.0 0
M  V30 31 C -6.5934 -7.9658 0.0 0
M  V30 END ATOM
M  V30 BEGIN BOND
M  V30 1 2 1 2
M  V30 2 1 2 3
M  V30 3 1 2 4
M  V30 4 1 4 5 CFG=1
M  V30 5 1 4 6
M  V30 6 1 5 7
M  V30 7 1 5 8
M  V30 8 1 6 9
M  V30 9 2 7 10
M  V30 10 2 8 11
M  V30 11 2 9 12
M  V30 12 1 9 13
M  V30 13 1 12 14
M  V30 14 2 13 15
M  V30 15 2 14 16
M  V30 16 1 16 17
M  V30 17 3 17 18
M  V30 18 1 18 19
M  V30 19 1 19 20
M  V30 20 1 20 21
M  V30 21 2 20 22
M  V30 22 2 21 23
M  V30 23 1 22 24
M  V30 24 1 22 25
M  V30 25 1 23 26
M  V30 26 2 26 27
M  V30 27 1 26 28
M  V30 28 1 27 29
M  V30 29 2 28 30
M  V30 30 2 29 31
M  V30 31 1 10 11
M  V30 32 1 15 16
M  V30 33 1 23 24
M  V30 34 1 30 31
M  V30 END BOND
M  V30 BEGIN COLLECTION
M  V30 MDLV30/STEABS ATOMS=(1 4)
M  V30 END COLLECTION
M  V30 END CTAB
M  END
>  <Molecule ChEMBL ID>
CHEMBL478725

>  <Smiles>
Cc1oc(-c2ccccc2)nc1CC#Cc1ccc(C[C@@H](C(=O)O)n2cccc2)cc1

>  <IC50_nM>
293

>  <Assay Description>
Displacement of [3H]darglitazone from human PPARgamma by scintillation proximity assay

$$$$
CHEMBL79426
Actelion Java MolfileCreator 2.0

  0  0  0  0  0  0              0 V3000
M  V30 BEGIN CTAB
M  V30 COUNTS 33 36 0 0 0
M  V30 BEGIN ATOM
M  V30 1 S 5.9316 -2.8238 0.0 0
M  V30 2 C 4.9535 -2.6159 0.0 0
M  V30 3 C 6.0361 -3.8184 0.0 0
M  V30 4 C 4.5467 -1.7024 0.0 0
M  V30 5 C 4.4535 -3.482 0.0 0
M  V30 6 C 5.1226 -4.2251 0.0 0
M  V30 7 O 5.0467 -0.8364 0.0 0
M  V30 8 N 3.5686 -1.4945 0.0 0
M  V30 9 C 4.3776 -0.0932 0.0 0
M  V30 10 C 3.4641 -0.5 0.0 0
M  V30 11 C 4.5855 0.8848 0.0 0
M  V30 12 C 2.598 0.0 0.0 0
M  V30 13 C 1.732 -0.5 0.0 0
M  V30 14 O 0.866 0.0 0.0 0
M  V30 15 C 0.0 -0.5 0.0 0
M  V30 16 C -0.866 0.0 0.0 0
M  V30 17 C 0.0 -1.4999 0.0 0
M  V30 18 C -1.732 -0.4999 0.0 0
M  V30 19 C -0.866 -1.9999 0.0 0
M  V30 20 C -1.732 -1.4999 0.0 0
M  V30 21 C -2.598 -1.9999 0.0 0
M  V30 22 C -2.598 -2.9999 0.0 0 CFG=1
M  V30 23 O -1.732 -3.4999 0.0 0
M  V30 24 C -3.4641 -3.4999 0.0 0
M  V30 25 C -1.732 -2.4999 0.0 0
M  V30 26 C -1.732 -4.4999 0.0 0
M  V30 27 O -4.3301 -2.9999 0.0 0
M  V30 28 O -3.4641 -4.4999 0.0 0
M  V30 29 C -2.598 -4.9999 0.0 0
M  V30 30 C -0.866 -5.0 0.0 0
M  V30 31 C -2.598 -5.9999 0.0 0
M  V30 32 C -0.866 -6.0 0.0 0
M  V30 33 C -1.732 -6.4999 0.0 0
M  V30 END ATOM
M  V30 BEGIN BOND
M  V30 1 1 1 2
M  V30 2 1 1 3
M  V30 3 1 2 4
M  V30 4 2 2 5
M  V30 5 2 3 6
M  V30 6 1 4 7
M  V30 7 2 4 8
M  V30 8 1 7 9
M  V30 9 1 8 10
M  V30 10 1 9 11
M  V30 11 1 10 12
M  V30 12 1 12 13
M  V30 13 1 13 14
M  V30 14 1 14 15
M  V30 15 2 15 16
M  V30 16 1 15 17
M  V30 17 1 16 18
M  V30 18 2 17 19
M  V30 19 2 18 20
M  V30 20 1 20 21
M  V30 21 1 21 22
M  V30 22 1 22 23
M  V30 23 1 22 24
M  V30 24 1 22 25 CFG=3
M  V30 25 1 23 26
M  V30 26 2 24 27
M  V30 27 1 24 28
M  V30 28 2 26 29
M  V30 29 1 26 30
M  V30 30 1 29 31
M  V30 31 2 30 32
M  V30 32 2 31 33
M  V30 33 1 5 6
M  V30 34 2 9 10
M  V30 35 1 19 20
M  V30 36 1 32 33
M  V30 END BOND
M  V30 BEGIN COLLECTION
M  V30 MDLV30/STEABS ATOMS=(1 22)
M  V30 END COLLECTION
M  V30 END CTAB
M  END
>  <Molecule ChEMBL ID>
CHEMBL79426

>  <Smiles>
Cc1oc(-c2cccs2)nc1CCOc1ccc(C[C@@](C)(Oc2ccccc2)C(=O)O)cc1

>  <IC50_nM>
297

>  <Assay Description>
Displacement of PPARgamma agonist from human PPAR gamma receptor

$$$$
CHEMBL79426
Actelion Java MolfileCreator 2.0

  0  0  0  0  0  0              0 V3000
M  V30 BEGIN CTAB
M  V30 COUNTS 33 36 0 0 0
M  V30 BEGIN ATOM
M  V30 1 S 5.9316 -2.8238 0.0 0
M  V30 2 C 4.9535 -2.6159 0.0 0
M  V30 3 C 6.0361 -3.8184 0.0 0
M  V30 4 C 4.5467 -1.7024 0.0 0
M  V30 5 C 4.4535 -3.482 0.0 0
M  V30 6 C 5.1226 -4.2251 0.0 0
M  V30 7 O 5.0467 -0.8364 0.0 0
M  V30 8 N 3.5686 -1.4945 0.0 0
M  V30 9 C 4.3776 -0.0932 0.0 0
M  V30 10 C 3.4641 -0.5 0.0 0
M  V30 11 C 4.5855 0.8848 0.0 0
M  V30 12 C 2.598 0.0 0.0 0
M  V30 13 C 1.732 -0.5 0.0 0
M  V30 14 O 0.866 0.0 0.0 0
M  V30 15 C 0.0 -0.5 0.0 0
M  V30 16 C -0.866 0.0 0.0 0
M  V30 17 C 0.0 -1.4999 0.0 0
M  V30 18 C -1.732 -0.4999 0.0 0
M  V30 19 C -0.866 -1.9999 0.0 0
M  V30 20 C -1.732 -1.4999 0.0 0
M  V30 21 C -2.598 -1.9999 0.0 0
M  V30 22 C -2.598 -2.9999 0.0 0 CFG=1
M  V30 23 O -1.732 -3.4999 0.0 0
M  V30 24 C -3.4641 -3.4999 0.0 0
M  V30 25 C -1.732 -2.4999 0.0 0
M  V30 26 C -1.732 -4.4999 0.0 0
M  V30 27 O -4.3301 -2.9999 0.0 0
M  V30 28 O -3.4641 -4.4999 0.0 0
M  V30 29 C -2.598 -4.9999 0.0 0
M  V30 30 C -0.866 -5.0 0.0 0
M  V30 31 C -2.598 -5.9999 0.0 0
M  V30 32 C -0.866 -6.0 0.0 0
M  V30 33 C -1.732 -6.4999 0.0 0
M  V30 END ATOM
M  V30 BEGIN BOND
M  V30 1 1 1 2
M  V30 2 1 1 3
M  V30 3 1 2 4
M  V30 4 2 2 5
M  V30 5 2 3 6
M  V30 6 1 4 7
M  V30 7 2 4 8
M  V30 8 1 7 9
M  V30 9 1 8 10
M  V30 10 1 9 11
M  V30 11 1 10 12
M  V30 12 1 12 13
M  V30 13 1 13 14
M  V30 14 1 14 15
M  V30 15 2 15 16
M  V30 16 1 15 17
M  V30 17 1 16 18
M  V30 18 2 17 19
M  V30 19 2 18 20
M  V30 20 1 20 21
M  V30 21 1 21 22
M  V30 22 1 22 23
M  V30 23 1 22 24
M  V30 24 1 22 25 CFG=3
M  V30 25 1 23 26
M  V30 26 2 24 27
M  V30 27 1 24 28
M  V30 28 2 26 29
M  V30 29 1 26 30
M  V30 30 1 29 31
M  V30 31 2 30 32
M  V30 32 2 31 33
M  V30 33 1 5 6
M  V30 34 2 9 10
M  V30 35 1 19 20
M  V30 36 1 32 33
M  V30 END BOND
M  V30 BEGIN COLLECTION
M  V30 MDLV30/STEABS ATOMS=(1 22)
M  V30 END COLLECTION
M  V30 END CTAB
M  END
>  <Molecule ChEMBL ID>
CHEMBL79426

>  <Smiles>
Cc1oc(-c2cccs2)nc1CCOc1ccc(C[C@@](C)(Oc2ccccc2)C(=O)O)cc1

>  <IC50_nM>
297.17

>  <Assay Description>
Agonist activity at PPARgamma

$$$$
CHEMBL381889
Actelion Java MolfileCreator 2.0

  0  0  0  0  0  0              0 V3000
M  V30 BEGIN CTAB
M  V30 COUNTS 35 38 0 0 0
M  V30 BEGIN ATOM
M  V30 1 Cl 4.3301 -1.9999 0.0 0
M  V30 2 C 3.4641 -1.4999 0.0 0
M  V30 3 C 3.4641 -0.5 0.0 0
M  V30 4 C 2.598 -1.9999 0.0 0
M  V30 5 C 2.598 0.0 0.0 0
M  V30 6 C 1.732 -1.5 0.0 0
M  V30 7 C 1.732 -0.5 0.0 0
M  V30 8 O 0.866 0.0 0.0 0
M  V30 9 C 0.0 -0.5 0.0 0
M  V30 10 C -0.9135 -0.0932 0.0 0
M  V30 11 C -0.1045 -1.4945 0.0 0
M  V30 12 N -1.5826 -0.8364 0.0 0
M  V30 13 C -1.1214 0.8848 0.0 0
M  V30 14 C -1.0826 -1.7024 0.0 0
M  V30 15 C 0.5646 -2.2376 0.0 0
M  V30 16 C -2.5771 -0.7318 0.0 0
M  V30 17 O -0.3783 1.554 0.0 0
M  V30 18 O -2.0725 1.1939 0.0 0
M  V30 19 C -1.3916 -2.6534 0.0 0
M  V30 20 C 0.2555 -3.1887 0.0 0
M  V30 21 C -2.9839 0.1816 0.0 0
M  V30 22 C -3.1649 -1.5408 0.0 0
M  V30 23 C -0.7225 -3.3966 0.0 0
M  V30 24 C -3.9784 0.2861 0.0 0
M  V30 25 C -4.1595 -1.4363 0.0 0
M  V30 26 O -1.0315 -4.3476 0.0 0
M  V30 27 C -4.5662 -0.5228 0.0 0
M  V30 28 C -0.3624 -5.0908 0.0 0
M  V30 29 C -5.5607 -0.4182 0.0 0
M  V30 30 F 0.3806 -4.4217 0.0 0
M  V30 31 F 0.3066 -5.8339 0.0 0
M  V30 32 F -1.1055 -5.7599 0.0 0
M  V30 33 C -5.6652 -1.4128 0.0 0
M  V30 34 C -6.5552 -0.3137 0.0 0
M  V30 35 C -5.4562 0.5762 0.0 0
M  V30 END ATOM
M  V30 BEGIN BOND
M  V30 1 1 1 2
M  V30 2 2 2 3
M  V30 3 1 2 4
M  V30 4 1 3 5
M  V30 5 2 4 6
M  V30 6 2 5 7
M  V30 7 1 7 8
M  V30 8 1 8 9
M  V30 9 2 9 10
M  V30 10 1 9 11
M  V30 11 1 10 12
M  V30 12 1 10 13
M  V30 13 2 11 14
M  V30 14 1 11 15
M  V30 15 1 12 16
M  V30 16 2 13 17
M  V30 17 1 13 18
M  V30 18 1 14 19
M  V30 19 2 15 20
M  V30 20 2 16 21
M  V30 21 1 16 22
M  V30 22 2 19 23
M  V30 23 1 21 24
M  V30 24 2 22 25
M  V30 25 1 23 26
M  V30 26 2 24 27
M  V30 27 1 26 28
M  V30 28 1 27 29
M  V30 29 1 28 30
M  V30 30 1 28 31
M  V30 31 1 28 32
M  V30 32 1 29 33
M  V30 33 1 29 34
M  V30 34 1 29 35
M  V30 35 1 6 7
M  V30 36 1 12 14
M  V30 37 1 20 23
M  V30 38 1 25 27
M  V30 END BOND
M  V30 END CTAB
M  END
>  <Molecule ChEMBL ID>
CHEMBL381889

>  <Smiles>
CC(C)(C)c1ccc(-n2c(C(=O)O)c(Oc3ccc(Cl)cc3)c3ccc(OC(F)(F)F)cc32)cc1

>  <IC50_nM>
298

>  <Assay Description>
Inhibitory concentration against human peroxisome proliferator activated receptor gamma in SPA assay

$$$$
CHEMBL121
Actelion Java MolfileCreator 2.0

  0  0  0  0  0  0              0 V3000
M  V30 BEGIN CTAB
M  V30 COUNTS 25 27 0 0 0
M  V30 BEGIN ATOM
M  V30 1 S 7.8987 0.0054 0.0 0
M  V30 2 C 8.8769 -0.2024 0.0 0
M  V30 3 C 7.7942 0.9999 0.0 0 CFG=2
M  V30 4 O 9.2836 -1.1159 0.0 0
M  V30 5 N 9.3769 0.6635 0.0 0
M  V30 6 C 8.7077 1.4067 0.0 0
M  V30 7 C 6.9282 1.4999 0.0 0
M  V30 8 O 8.9156 2.3848 0.0 0
M  V30 9 C 6.0621 0.9999 0.0 0
M  V30 10 C 5.1961 1.4999 0.0 0
M  V30 11 C 6.0621 0.0 0.0 0
M  V30 12 C 4.3301 0.9999 0.0 0
M  V30 13 C 5.1961 -0.5 0.0 0
M  V30 14 C 4.3301 0.0 0.0 0
M  V30 15 O 3.4641 -0.5 0.0 0
M  V30 16 C 2.598 0.0 0.0 0
M  V30 17 C 1.732 -0.5 0.0 0
M  V30 18 N 0.866 0.0 0.0 0
M  V30 19 C 0.866 1.0 0.0 0
M  V30 20 C 0.0 -0.5 0.0 0
M  V30 21 N 1.732 1.4999 0.0 0
M  V30 22 C 0.0 1.4999 0.0 0
M  V30 23 C 1.732 2.5 0.0 0
M  V30 24 C 0.0 2.5 0.0 0
M  V30 25 C 0.866 3.0 0.0 0
M  V30 END ATOM
M  V30 BEGIN BOND
M  V30 1 1 1 2
M  V30 2 1 1 3
M  V30 3 2 2 4
M  V30 4 1 2 5
M  V30 5 1 3 6
M  V30 6 1 3 7 CFG=1
M  V30 7 2 6 8
M  V30 8 1 7 9
M  V30 9 2 9 10
M  V30 10 1 9 11
M  V30 11 1 10 12
M  V30 12 2 11 13
M  V30 13 2 12 14
M  V30 14 1 14 15
M  V30 15 1 15 16
M  V30 16 1 16 17
M  V30 17 1 17 18
M  V30 18 1 18 19
M  V30 19 1 18 20
M  V30 20 2 19 21
M  V30 21 1 19 22
M  V30 22 1 21 23
M  V30 23 2 22 24
M  V30 24 2 23 25
M  V30 25 1 5 6
M  V30 26 1 13 14
M  V30 27 1 24 25
M  V30 END BOND
M  V30 BEGIN COLLECTION
M  V30 MDLV30/STERAC1 ATOMS=(1 3)
M  V30 END COLLECTION
M  V30 END CTAB
M  END
>  <Molecule ChEMBL ID>
CHEMBL121

>  <Smiles>
CN(CCOc1ccc(CC2SC(=O)NC2=O)cc1)c1ccccn1

>  <IC50_nM>
298

>  <Assay Description>
Displacement of fluormone-PPARgamma green from GST-tagged PPARgamma-LBD (unknown origin) by fluorescence polarization assay

$$$$
CHEMBL25710
Actelion Java MolfileCreator 2.0

  0  0  0  0  0  0              0 V3000
M  V30 BEGIN CTAB
M  V30 COUNTS 30 31 0 0 0
M  V30 BEGIN ATOM
M  V30 1 Cl 6.0621 1.0 0.0 0
M  V30 2 C 6.0621 0.0 0.0 0
M  V30 3 C 5.1961 -0.5 0.0 0
M  V30 4 C 6.9282 -0.4999 0.0 0
M  V30 5 S 4.3301 0.0 0.0 0
M  V30 6 C 5.1961 -1.4999 0.0 0
M  V30 7 C 6.9282 -1.4999 0.0 0
M  V30 8 C 3.4641 -0.5 0.0 0
M  V30 9 C 6.0621 -1.9999 0.0 0
M  V30 10 C 7.7942 -1.9999 0.0 0
M  V30 11 C 2.598 0.0 0.0 0
M  V30 12 C 7.7942 -2.9999 0.0 0
M  V30 13 C 1.732 -0.5 0.0 0
M  V30 14 O 6.9282 -3.4999 0.0 0
M  V30 15 O 8.6602 -3.4999 0.0 0
M  V30 16 O 0.866 0.0 0.0 0
M  V30 17 C 0.0 -0.5 0.0 0
M  V30 18 C -0.866 0.0 0.0 0
M  V30 19 C 0.0 -1.4999 0.0 0
M  V30 20 C -1.732 -0.4999 0.0 0
M  V30 21 C -0.866 1.0 0.0 0
M  V30 22 C -0.866 -1.9999 0.0 0
M  V30 23 O -2.598 0.0 0.0 0
M  V30 24 C -1.732 -1.4999 0.0 0
M  V30 25 C 0.0 1.5 0.0 0
M  V30 26 C -2.598 -1.9999 0.0 0
M  V30 27 C 0.0 2.5 0.0 0
M  V30 28 O -2.598 -2.9999 0.0 0
M  V30 29 C -3.4641 -1.4999 0.0 0
M  V30 30 C -4.3301 -1.9999 0.0 0
M  V30 END ATOM
M  V30 BEGIN BOND
M  V30 1 1 1 2
M  V30 2 2 2 3
M  V30 3 1 2 4
M  V30 4 1 3 5
M  V30 5 1 3 6
M  V30 6 2 4 7
M  V30 7 1 5 8
M  V30 8 2 6 9
M  V30 9 1 7 10
M  V30 10 1 8 11
M  V30 11 1 10 12
M  V30 12 1 11 13
M  V30 13 2 12 14
M  V30 14 1 12 15
M  V30 15 1 13 16
M  V30 16 1 16 17
M  V30 17 2 17 18
M  V30 18 1 17 19
M  V30 19 1 18 20
M  V30 20 1 18 21
M  V30 21 2 19 22
M  V30 22 1 20 23
M  V30 23 2 20 24
M  V30 24 1 21 25
M  V30 25 1 24 26
M  V30 26 1 25 27
M  V30 27 2 26 28
M  V30 28 1 26 29
M  V30 29 1 29 30
M  V30 30 1 7 9
M  V30 31 1 22 24
M  V30 END BOND
M  V30 END CTAB
M  END
>  <Molecule ChEMBL ID>
CHEMBL25710

>  <Smiles>
CCCc1c(OCCCSc2ccc(CC(=O)O)cc2Cl)ccc(C(=O)CC)c1O

>  <IC50_nM>
299.92

>  <Assay Description>
Agonist activity at PPARgamma

$$$$
CHEMBL408
Actelion Java MolfileCreator 2.0

  0  0  0  0  0  0              0 V3000
M  V30 BEGIN CTAB
M  V30 COUNTS 31 34 0 0 0
M  V30 BEGIN ATOM
M  V30 1 S 6.1667 0.0054 0.0 0
M  V30 2 C 7.1448 -0.2024 0.0 0
M  V30 3 C 6.0621 1.0 0.0 0
M  V30 4 O 7.5515 -1.1159 0.0 0
M  V30 5 N 7.6448 0.6635 0.0 0
M  V30 6 C 6.9757 1.4067 0.0 0
M  V30 7 C 5.1961 1.5 0.0 0
M  V30 8 O 7.1836 2.3848 0.0 0
M  V30 9 C 4.3301 1.0 0.0 0
M  V30 10 C 3.4641 1.5 0.0 0
M  V30 11 C 4.3301 0.0 0.0 0
M  V30 12 C 2.598 0.9999 0.0 0
M  V30 13 C 3.4641 -0.4999 0.0 0
M  V30 14 C 2.598 0.0 0.0 0
M  V30 15 O 1.732 -0.5 0.0 0
M  V30 16 C 0.866 0.0 0.0 0
M  V30 17 C 0.0 -0.5 0.0 0
M  V30 18 O -0.866 0.0 0.0 0
M  V30 19 C 0.0 -1.4999 0.0 0
M  V30 20 C 0.866 -1.0 0.0 0
M  V30 21 C -1.732 -0.4999 0.0 0
M  V30 22 C -0.866 -1.9999 0.0 0
M  V30 23 C -1.732 -1.4999 0.0 0
M  V30 24 C -2.598 0.0 0.0 0
M  V30 25 C -2.598 -1.9999 0.0 0
M  V30 26 C -3.4641 -0.4999 0.0 0
M  V30 27 C -2.598 1.0 0.0 0
M  V30 28 C -3.4641 -1.4999 0.0 0
M  V30 29 C -2.598 -2.9999 0.0 0
M  V30 30 C -4.3301 0.0 0.0 0
M  V30 31 O -4.3301 -1.9999 0.0 0
M  V30 END ATOM
M  V30 BEGIN BOND
M  V30 1 1 1 2
M  V30 2 1 1 3
M  V30 3 2 2 4
M  V30 4 1 2 5
M  V30 5 1 3 6
M  V30 6 1 3 7
M  V30 7 2 6 8
M  V30 8 1 7 9
M  V30 9 2 9 10
M  V30 10 1 9 11
M  V30 11 1 10 12
M  V30 12 2 11 13
M  V30 13 2 12 14
M  V30 14 1 14 15
M  V30 15 1 15 16
M  V30 16 1 16 17
M  V30 17 1 17 18
M  V30 18 1 17 19
M  V30 19 1 17 20
M  V30 20 1 18 21
M  V30 21 1 19 22
M  V30 22 2 21 23
M  V30 23 1 21 24
M  V30 24 1 23 25
M  V30 25 2 24 26
M  V30 26 1 24 27
M  V30 27 2 25 28
M  V30 28 1 25 29
M  V30 29 1 26 30
M  V30 30 1 28 31
M  V30 31 1 5 6
M  V30 32 1 13 14
M  V30 33 1 22 23
M  V30 34 1 26 28
M  V30 END BOND
M  V30 END CTAB
M  END
>  <Molecule ChEMBL ID>
CHEMBL408

>  <Smiles>
Cc1c(C)c2c(c(C)c1O)CCC(C)(COc1ccc(CC3SC(=O)NC3=O)cc1)O2

>  <IC50_nM>
300

>  <Assay Description>
Binding affinity to GST-tagged human PPARgamma by TR-FRET analysis

$$$$
CHEMBL3678082
Actelion Java MolfileCreator 2.0

  0  0  0  0  0  0              0 V3000
M  V30 BEGIN CTAB
M  V30 COUNTS 32 35 0 0 0
M  V30 BEGIN ATOM
M  V30 1 F 8.8737 -1.5453 0.0 0
M  V30 2 C 8.5647 -2.4964 0.0 0
M  V30 3 C 7.5865 -2.7043 0.0 0
M  V30 4 C 9.2338 -3.2395 0.0 0
M  V30 5 C 7.2775 -3.6554 0.0 0
M  V30 6 C 6.9174 -1.9612 0.0 0
M  V30 7 C 8.9248 -4.1906 0.0 0
M  V30 8 C 7.9466 -4.3985 0.0 0
M  V30 9 N 5.9392 -2.1691 0.0 0
M  V30 10 F 9.5939 -4.9337 0.0 0
M  V30 11 C 5.1961 -1.4999 0.0 0
M  V30 12 C 5.5325 -3.0826 0.0 0
M  V30 13 C 4.3301 -1.9999 0.0 0
M  V30 14 C 5.1961 -0.4999 0.0 0
M  V30 15 C 4.538 -2.9781 0.0 0
M  V30 16 C 3.4641 -1.5 0.0 0
M  V30 17 C 4.3301 0.0 0.0 0
M  V30 18 C 3.4641 -0.5 0.0 0
M  V30 19 C 2.598 0.0 0.0 0
M  V30 20 O 2.598 1.0 0.0 0
M  V30 21 N 1.732 -0.5 0.0 0
M  V30 22 C 0.866 0.0 0.0 0
M  V30 23 C 0.0 -0.5 0.0 0
M  V30 24 C -0.866 0.0 0.0 0
M  V30 25 C 0.0 -1.4999 0.0 0
M  V30 26 C -1.732 -0.4999 0.0 0
M  V30 27 C -0.866 -1.9999 0.0 0
M  V30 28 O -2.598 0.0 0.0 0
M  V30 29 C -1.732 -1.4999 0.0 0
M  V30 30 C -3.4641 -0.4999 0.0 0
M  V30 31 O -2.598 -1.9999 0.0 0
M  V30 32 C -2.598 -2.9999 0.0 0
M  V30 END ATOM
M  V30 BEGIN BOND
M  V30 1 1 1 2
M  V30 2 2 2 3
M  V30 3 1 2 4
M  V30 4 1 3 5
M  V30 5 1 3 6
M  V30 6 2 4 7
M  V30 7 2 5 8
M  V30 8 1 6 9
M  V30 9 1 7 10
M  V30 10 1 9 11
M  V30 11 1 9 12
M  V30 12 2 11 13
M  V30 13 1 11 14
M  V30 14 2 12 15
M  V30 15 1 13 16
M  V30 16 2 14 17
M  V30 17 2 16 18
M  V30 18 1 18 19
M  V30 19 2 19 20
M  V30 20 1 19 21
M  V30 21 1 21 22
M  V30 22 1 22 23
M  V30 23 2 23 24
M  V30 24 1 23 25
M  V30 25 1 24 26
M  V30 26 2 25 27
M  V30 27 1 26 28
M  V30 28 2 26 29
M  V30 29 1 28 30
M  V30 30 1 29 31
M  V30 31 1 31 32
M  V30 32 1 7 8
M  V30 33 1 13 15
M  V30 34 1 17 18
M  V30 35 1 27 29
M  V30 END BOND
M  V30 END CTAB
M  END
>  <Molecule ChEMBL ID>
CHEMBL3678082

>  <Smiles>
COc1ccc(CNC(=O)c2ccc3c(ccn3Cc3ccc(F)cc3F)c2)cc1OC

>  <IC50_nM>
300

>  <Assay Description>
Lanthascreen Competitive Binding Assay: The assay was performed according to manufacturer protocol. A mixture of 5 nM GST-PPARG-LBD, 5 nM Tb-GST-antibody, 5 nM Fluormone Pan- PPAR Green, and serial dilutions of the experimental compound, beginning at 10 ׬� downwards, was added to wells of black 384-well low- volume plates (Greiner) to a total volume of 18 xL. All dilutions were made in TR-FRET assay buffer C. DMSO at 2% final concentration was used as a no-ligand control. Experiment was performed in triplicate, and incubated for 2 hours in the dark prior to assay read in Perkin Elmer ViewLux ultra HTS microplate reader. FRET signal was measured by excitation at 340 nm and emission at 520 nm for fluorescein and 490 nm for terbium.

$$$$
CHEMBL25710
Actelion Java MolfileCreator 2.0

  0  0  0  0  0  0              0 V3000
M  V30 BEGIN CTAB
M  V30 COUNTS 30 31 0 0 0
M  V30 BEGIN ATOM
M  V30 1 Cl 6.0621 1.0 0.0 0
M  V30 2 C 6.0621 0.0 0.0 0
M  V30 3 C 5.1961 -0.5 0.0 0
M  V30 4 C 6.9282 -0.4999 0.0 0
M  V30 5 S 4.3301 0.0 0.0 0
M  V30 6 C 5.1961 -1.4999 0.0 0
M  V30 7 C 6.9282 -1.4999 0.0 0
M  V30 8 C 3.4641 -0.5 0.0 0
M  V30 9 C 6.0621 -1.9999 0.0 0
M  V30 10 C 7.7942 -1.9999 0.0 0
M  V30 11 C 2.598 0.0 0.0 0
M  V30 12 C 7.7942 -2.9999 0.0 0
M  V30 13 C 1.732 -0.5 0.0 0
M  V30 14 O 6.9282 -3.4999 0.0 0
M  V30 15 O 8.6602 -3.4999 0.0 0
M  V30 16 O 0.866 0.0 0.0 0
M  V30 17 C 0.0 -0.5 0.0 0
M  V30 18 C -0.866 0.0 0.0 0
M  V30 19 C 0.0 -1.4999 0.0 0
M  V30 20 C -1.732 -0.4999 0.0 0
M  V30 21 C -0.866 1.0 0.0 0
M  V30 22 C -0.866 -1.9999 0.0 0
M  V30 23 O -2.598 0.0 0.0 0
M  V30 24 C -1.732 -1.4999 0.0 0
M  V30 25 C 0.0 1.5 0.0 0
M  V30 26 C -2.598 -1.9999 0.0 0
M  V30 27 C 0.0 2.5 0.0 0
M  V30 28 O -2.598 -2.9999 0.0 0
M  V30 29 C -3.4641 -1.4999 0.0 0
M  V30 30 C -4.3301 -1.9999 0.0 0
M  V30 END ATOM
M  V30 BEGIN BOND
M  V30 1 1 1 2
M  V30 2 2 2 3
M  V30 3 1 2 4
M  V30 4 1 3 5
M  V30 5 1 3 6
M  V30 6 2 4 7
M  V30 7 1 5 8
M  V30 8 2 6 9
M  V30 9 1 7 10
M  V30 10 1 8 11
M  V30 11 1 10 12
M  V30 12 1 11 13
M  V30 13 2 12 14
M  V30 14 1 12 15
M  V30 15 1 13 16
M  V30 16 1 16 17
M  V30 17 2 17 18
M  V30 18 1 17 19
M  V30 19 1 18 20
M  V30 20 1 18 21
M  V30 21 2 19 22
M  V30 22 1 20 23
M  V30 23 2 20 24
M  V30 24 1 21 25
M  V30 25 1 24 26
M  V30 26 1 25 27
M  V30 27 2 26 28
M  V30 28 1 26 29
M  V30 29 1 29 30
M  V30 30 1 7 9
M  V30 31 1 22 24
M  V30 END BOND
M  V30 END CTAB
M  END
>  <Molecule ChEMBL ID>
CHEMBL25710

>  <Smiles>
CCCc1c(OCCCSc2ccc(CC(=O)O)cc2Cl)ccc(C(=O)CC)c1O

>  <IC50_nM>
300

>  <Assay Description>
In vitro binding affinity for human PPAR gamma in SPA

$$$$
CHEMBL1783051
Actelion Java MolfileCreator 2.0

  0  0  0  0  0  0              0 V3000
M  V30 BEGIN CTAB
M  V30 COUNTS 36 39 0 0 0
M  V30 BEGIN ATOM
M  V30 1 S 8.7077 -0.4067 0.0 0
M  V30 2 C 9.3769 0.3364 0.0 0
M  V30 3 C 7.7942 0.0 0.0 0 CFG=1
M  V30 4 O 10.3714 0.2318 0.0 0
M  V30 5 N 8.8769 1.2024 0.0 0
M  V30 6 C 6.9282 -0.5 0.0 0
M  V30 7 C 7.8987 0.9945 0.0 0
M  V30 8 C 6.0621 0.0 0.0 0
M  V30 9 C 6.9282 -1.5 0.0 0
M  V30 10 O 7.1556 1.6636 0.0 0
M  V30 11 C 5.1961 -0.5 0.0 0
M  V30 12 C 6.0621 -2.0 0.0 0
M  V30 13 O 4.3301 0.0 0.0 0
M  V30 14 C 5.1961 -1.5 0.0 0
M  V30 15 C 3.4641 -0.5 0.0 0
M  V30 16 C 2.598 0.0 0.0 0
M  V30 17 C 1.732 -0.5 0.0 0
M  V30 18 O 0.866 0.0 0.0 0
M  V30 19 C 0.0 -0.5 0.0 0
M  V30 20 C -0.866 0.0 0.0 0
M  V30 21 C 0.0 -1.4999 0.0 0
M  V30 22 C -1.732 -0.4999 0.0 0
M  V30 23 C -0.866 1.0 0.0 0
M  V30 24 C -0.866 -1.9999 0.0 0
M  V30 25 C -1.732 -1.4999 0.0 0
M  V30 26 C 0.0 1.5 0.0 0
M  V30 27 O -2.598 -1.9999 0.0 0
M  V30 28 C 0.0 2.5 0.0 0
M  V30 29 C -2.598 -2.9999 0.0 0
M  V30 30 C -3.4641 -3.4999 0.0 0
M  V30 31 C -1.732 -3.4999 0.0 0
M  V30 32 C -3.4641 -4.4999 0.0 0
M  V30 33 C -1.732 -4.4999 0.0 0
M  V30 34 C -2.598 -4.9999 0.0 0
M  V30 35 O -2.598 -5.9999 0.0 0
M  V30 36 C -1.732 -6.4999 0.0 0
M  V30 END ATOM
M  V30 BEGIN BOND
M  V30 1 1 1 2
M  V30 2 1 1 3
M  V30 3 2 2 4
M  V30 4 1 2 5
M  V30 5 1 3 6 CFG=1
M  V30 6 1 3 7
M  V30 7 2 6 8
M  V30 8 1 6 9
M  V30 9 2 7 10
M  V30 10 1 8 11
M  V30 11 2 9 12
M  V30 12 1 11 13
M  V30 13 2 11 14
M  V30 14 1 13 15
M  V30 15 1 15 16
M  V30 16 1 16 17
M  V30 17 1 17 18
M  V30 18 1 18 19
M  V30 19 2 19 20
M  V30 20 1 19 21
M  V30 21 1 20 22
M  V30 22 1 20 23
M  V30 23 2 21 24
M  V30 24 2 22 25
M  V30 25 1 23 26
M  V30 26 1 25 27
M  V30 27 1 26 28
M  V30 28 1 27 29
M  V30 29 2 29 30
M  V30 30 1 29 31
M  V30 31 1 30 32
M  V30 32 2 31 33
M  V30 33 2 32 34
M  V30 34 1 34 35
M  V30 35 1 35 36
M  V30 36 1 5 7
M  V30 37 1 12 14
M  V30 38 1 24 25
M  V30 39 1 33 34
M  V30 END BOND
M  V30 BEGIN COLLECTION
M  V30 MDLV30/STEABS ATOMS=(1 3)
M  V30 END COLLECTION
M  V30 END CTAB
M  END
>  <Molecule ChEMBL ID>
CHEMBL1783051

>  <Smiles>
CCCc1cc(Oc2ccc(OC)cc2)ccc1OCCCOc1cccc([C@@H]2SC(=O)NC2=O)c1

>  <IC50_nM>
300

>  <Assay Description>
Displacement of radio-labeled full agonist from PPARgamma receptor

$$$$
CHEMBL92130
Actelion Java MolfileCreator 2.0

  0  0  0  0  0  0              0 V3000
M  V30 BEGIN CTAB
M  V30 COUNTS 36 39 0 0 0
M  V30 BEGIN ATOM
M  V30 1 S 8.7077 -0.4067 0.0 0
M  V30 2 C 9.3769 0.3364 0.0 0
M  V30 3 C 7.7942 0.0 0.0 0 CFG=2
M  V30 4 O 10.3714 0.2318 0.0 0
M  V30 5 N 8.8769 1.2024 0.0 0
M  V30 6 C 6.9282 -0.5 0.0 0
M  V30 7 C 7.8987 0.9945 0.0 0
M  V30 8 C 6.0621 0.0 0.0 0
M  V30 9 C 6.9282 -1.5 0.0 0
M  V30 10 O 7.1556 1.6636 0.0 0
M  V30 11 C 5.1961 -0.5 0.0 0
M  V30 12 C 6.0621 -2.0 0.0 0
M  V30 13 O 4.3301 0.0 0.0 0
M  V30 14 C 5.1961 -1.5 0.0 0
M  V30 15 C 3.4641 -0.5 0.0 0
M  V30 16 C 2.598 0.0 0.0 0
M  V30 17 C 1.732 -0.5 0.0 0
M  V30 18 O 0.866 0.0 0.0 0
M  V30 19 C 0.0 -0.5 0.0 0
M  V30 20 C -0.866 0.0 0.0 0
M  V30 21 C 0.0 -1.4999 0.0 0
M  V30 22 C -1.732 -0.4999 0.0 0
M  V30 23 C -0.866 1.0 0.0 0
M  V30 24 C -0.866 -1.9999 0.0 0
M  V30 25 C -1.732 -1.4999 0.0 0
M  V30 26 C 0.0 1.5 0.0 0
M  V30 27 O -2.598 -1.9999 0.0 0
M  V30 28 C 0.0 2.5 0.0 0
M  V30 29 C -2.598 -2.9999 0.0 0
M  V30 30 C -3.4641 -3.4999 0.0 0
M  V30 31 C -1.732 -3.4999 0.0 0
M  V30 32 C -3.4641 -4.4999 0.0 0
M  V30 33 C -1.732 -4.4999 0.0 0
M  V30 34 C -2.598 -4.9999 0.0 0
M  V30 35 O -2.598 -5.9999 0.0 0
M  V30 36 C -1.732 -6.4999 0.0 0
M  V30 END ATOM
M  V30 BEGIN BOND
M  V30 1 1 1 2
M  V30 2 1 1 3
M  V30 3 2 2 4
M  V30 4 1 2 5
M  V30 5 1 3 6 CFG=3
M  V30 6 1 3 7
M  V30 7 2 6 8
M  V30 8 1 6 9
M  V30 9 2 7 10
M  V30 10 1 8 11
M  V30 11 2 9 12
M  V30 12 1 11 13
M  V30 13 2 11 14
M  V30 14 1 13 15
M  V30 15 1 15 16
M  V30 16 1 16 17
M  V30 17 1 17 18
M  V30 18 1 18 19
M  V30 19 2 19 20
M  V30 20 1 19 21
M  V30 21 1 20 22
M  V30 22 1 20 23
M  V30 23 2 21 24
M  V30 24 2 22 25
M  V30 25 1 23 26
M  V30 26 1 25 27
M  V30 27 1 26 28
M  V30 28 1 27 29
M  V30 29 2 29 30
M  V30 30 1 29 31
M  V30 31 1 30 32
M  V30 32 2 31 33
M  V30 33 2 32 34
M  V30 34 1 34 35
M  V30 35 1 35 36
M  V30 36 1 5 7
M  V30 37 1 12 14
M  V30 38 1 24 25
M  V30 39 1 33 34
M  V30 END BOND
M  V30 BEGIN COLLECTION
M  V30 MDLV30/STERAC1 ATOMS=(1 3)
M  V30 END COLLECTION
M  V30 END CTAB
M  END
>  <Molecule ChEMBL ID>
CHEMBL92130

>  <Smiles>
CCCc1cc(Oc2ccc(OC)cc2)ccc1OCCCOc1cccc(C2SC(=O)NC2=O)c1

>  <IC50_nM>
300

>  <Assay Description>
In vitro binding affinity against human peroxisome proliferator activated receptor gamma

$$$$
CHEMBL3695793
Actelion Java MolfileCreator 2.0

  0  0  0  0  0  0              0 V3000
M  V30 BEGIN CTAB
M  V30 COUNTS 37 41 0 0 0
M  V30 BEGIN ATOM
M  V30 1 O 6.0621 -3.0 0.0 0
M  V30 2 N 6.0621 -1.9999 0.0 0 CHG=1
M  V30 3 O 6.9282 -1.5 0.0 0 CHG=-1
M  V30 4 C 5.1961 -1.4999 0.0 0
M  V30 5 C 5.1961 -0.5 0.0 0
M  V30 6 C 4.3301 -1.9999 0.0 0
M  V30 7 C 4.3301 0.0 0.0 0
M  V30 8 C 3.4641 -1.5 0.0 0
M  V30 9 C 3.4641 -0.5 0.0 0
M  V30 10 C 2.598 0.0 0.0 0 CFG=1
M  V30 11 N 1.732 -0.5 0.0 0
M  V30 12 C 2.598 1.0 0.0 0
M  V30 13 C 0.866 0.0 0.0 0
M  V30 14 O 0.866 1.0 0.0 0
M  V30 15 C 0.0 -0.5 0.0 0
M  V30 16 C 0.0 -1.4999 0.0 0
M  V30 17 C -0.866 0.0 0.0 0
M  V30 18 C -0.866 -1.9999 0.0 0
M  V30 19 C -1.732 -0.4999 0.0 0
M  V30 20 C -1.732 -1.4999 0.0 0
M  V30 21 C -1.0739 -2.9781 0.0 0
M  V30 22 N -2.4751 -2.1691 0.0 0
M  V30 23 C -2.0684 -3.0826 0.0 0
M  V30 24 C -3.4533 -1.9612 0.0 0
M  V30 25 C -4.1224 -2.7043 0.0 0
M  V30 26 C -5.1006 -2.4964 0.0 0
M  V30 27 C -3.8134 -3.6554 0.0 0
M  V30 28 C -5.7697 -3.2395 0.0 0
M  V30 29 C -4.4825 -4.3985 0.0 0
M  V30 30 C -5.4607 -4.1906 0.0 0
M  V30 31 C -6.1298 -4.9337 0.0 0
M  V30 32 C -7.108 -4.7258 0.0 0
M  V30 33 C -5.8208 -5.8848 0.0 0
M  V30 34 C -7.7771 -5.469 0.0 0
M  V30 35 C -6.4899 -6.6279 0.0 0
M  V30 36 C -7.4681 -6.42 0.0 0
M  V30 37 O -8.1372 -7.1632 0.0 0
M  V30 END ATOM
M  V30 BEGIN BOND
M  V30 1 2 1 2
M  V30 2 1 2 3
M  V30 3 1 2 4
M  V30 4 2 4 5
M  V30 5 1 4 6
M  V30 6 1 5 7
M  V30 7 2 6 8
M  V30 8 2 7 9
M  V30 9 1 9 10
M  V30 10 1 10 11
M  V30 11 1 10 12 CFG=1
M  V30 12 1 11 13
M  V30 13 2 13 14
M  V30 14 1 13 15
M  V30 15 2 15 16
M  V30 16 1 15 17
M  V30 17 1 16 18
M  V30 18 2 17 19
M  V30 19 2 18 20
M  V30 20 1 18 21
M  V30 21 1 20 22
M  V30 22 2 21 23
M  V30 23 1 22 24
M  V30 24 1 24 25
M  V30 25 2 25 26
M  V30 26 1 25 27
M  V30 27 1 26 28
M  V30 28 2 27 29
M  V30 29 2 28 30
M  V30 30 1 30 31
M  V30 31 2 31 32
M  V30 32 1 31 33
M  V30 33 1 32 34
M  V30 34 2 33 35
M  V30 35 2 34 36
M  V30 36 1 36 37
M  V30 37 1 8 9
M  V30 38 1 19 20
M  V30 39 1 22 23
M  V30 40 1 29 30
M  V30 41 1 35 36
M  V30 END BOND
M  V30 BEGIN COLLECTION
M  V30 MDLV30/STEABS ATOMS=(1 10)
M  V30 END COLLECTION
M  V30 END CTAB
M  END
>  <Molecule ChEMBL ID>
CHEMBL3695793

>  <Smiles>
C[C@H](NC(=O)c1ccc2c(ccn2Cc2ccc(-c3ccc(O)cc3)cc2)c1)c1ccc([N+](=O)[O-])cc1

>  <IC50_nM>
300

>  <Assay Description>
Lanthascreen Competitive Binding Assay: The assay was performed according to manufacturer protocol. A mixture of nM GST-PPARG-LBD, 5 nM Tb-GST-antibody, 5 nM Fluormone Pan-PPAR Green, and serial dilutions of the experimental compound, beginning at 10 ׬M downwards, was added to wells of black 384-well low-volume plates (Greiner) to a total volume of 18 ׬L. All dilutions were made in TR-FRET assay buffer C. DMSO at 2% final concentration was used as a no-ligand control. Experiment was performed in triplicate, and incubated for 2 hours in the dark prior to assay read in Perkin Elmer ViewLux ultra HTS microplate reader. FRET signal was measured by excitation at 340 nm and emission at 520 nm for fluorescein and 490 nm for terbium. Fold change over DMSO was calculated using GraphPad Prism Software (La Jolla, Calif.) by calculating 520 nm/490 nm ratio. Graphs were plotted as fold change of FRET signal for compound treatment over DMSO-only control.

$$$$
CHEMBL25710
Actelion Java MolfileCreator 2.0

  0  0  0  0  0  0              0 V3000
M  V30 BEGIN CTAB
M  V30 COUNTS 30 31 0 0 0
M  V30 BEGIN ATOM
M  V30 1 Cl 6.0621 1.0 0.0 0
M  V30 2 C 6.0621 0.0 0.0 0
M  V30 3 C 5.1961 -0.5 0.0 0
M  V30 4 C 6.9282 -0.4999 0.0 0
M  V30 5 S 4.3301 0.0 0.0 0
M  V30 6 C 5.1961 -1.4999 0.0 0
M  V30 7 C 6.9282 -1.4999 0.0 0
M  V30 8 C 3.4641 -0.5 0.0 0
M  V30 9 C 6.0621 -1.9999 0.0 0
M  V30 10 C 7.7942 -1.9999 0.0 0
M  V30 11 C 2.598 0.0 0.0 0
M  V30 12 C 7.7942 -2.9999 0.0 0
M  V30 13 C 1.732 -0.5 0.0 0
M  V30 14 O 6.9282 -3.4999 0.0 0
M  V30 15 O 8.6602 -3.4999 0.0 0
M  V30 16 O 0.866 0.0 0.0 0
M  V30 17 C 0.0 -0.5 0.0 0
M  V30 18 C -0.866 0.0 0.0 0
M  V30 19 C 0.0 -1.4999 0.0 0
M  V30 20 C -1.732 -0.4999 0.0 0
M  V30 21 C -0.866 1.0 0.0 0
M  V30 22 C -0.866 -1.9999 0.0 0
M  V30 23 O -2.598 0.0 0.0 0
M  V30 24 C -1.732 -1.4999 0.0 0
M  V30 25 C 0.0 1.5 0.0 0
M  V30 26 C -2.598 -1.9999 0.0 0
M  V30 27 C 0.0 2.5 0.0 0
M  V30 28 O -2.598 -2.9999 0.0 0
M  V30 29 C -3.4641 -1.4999 0.0 0
M  V30 30 C -4.3301 -1.9999 0.0 0
M  V30 END ATOM
M  V30 BEGIN BOND
M  V30 1 1 1 2
M  V30 2 2 2 3
M  V30 3 1 2 4
M  V30 4 1 3 5
M  V30 5 1 3 6
M  V30 6 2 4 7
M  V30 7 1 5 8
M  V30 8 2 6 9
M  V30 9 1 7 10
M  V30 10 1 8 11
M  V30 11 1 10 12
M  V30 12 1 11 13
M  V30 13 2 12 14
M  V30 14 1 12 15
M  V30 15 1 13 16
M  V30 16 1 16 17
M  V30 17 2 17 18
M  V30 18 1 17 19
M  V30 19 1 18 20
M  V30 20 1 18 21
M  V30 21 2 19 22
M  V30 22 1 20 23
M  V30 23 2 20 24
M  V30 24 1 21 25
M  V30 25 1 24 26
M  V30 26 1 25 27
M  V30 27 2 26 28
M  V30 28 1 26 29
M  V30 29 1 29 30
M  V30 30 1 7 9
M  V30 31 1 22 24
M  V30 END BOND
M  V30 END CTAB
M  END
>  <Molecule ChEMBL ID>
CHEMBL25710

>  <Smiles>
CCCc1c(OCCCSc2ccc(CC(=O)O)cc2Cl)ccc(C(=O)CC)c1O

>  <IC50_nM>
300

>  <Assay Description>
Displacement of radio-labeled full agonist from PPARgamma receptor

$$$$
CHEMBL3695775
Actelion Java MolfileCreator 2.0

  0  0  0  0  0  0              0 V3000
M  V30 BEGIN CTAB
M  V30 COUNTS 41 45 0 0 0
M  V30 BEGIN ATOM
M  V30 1 S 6.0621 -1.9999 0.0 0
M  V30 2 O 5.5621 -2.866 0.0 0
M  V30 3 O 6.5621 -1.1339 0.0 0
M  V30 4 N 6.9282 -2.5 0.0 0
M  V30 5 C 5.1961 -1.4999 0.0 0
M  V30 6 C 5.1961 -0.5 0.0 0
M  V30 7 C 4.3301 -1.9999 0.0 0
M  V30 8 C 4.3301 0.0 0.0 0
M  V30 9 C 3.4641 -1.5 0.0 0
M  V30 10 C 3.4641 -0.5 0.0 0
M  V30 11 C 2.598 0.0 0.0 0
M  V30 12 N 1.732 -0.5 0.0 0
M  V30 13 C 0.866 0.0 0.0 0
M  V30 14 O 0.866 1.0 0.0 0
M  V30 15 C 0.0 -0.5 0.0 0
M  V30 16 C 0.0 -1.4999 0.0 0
M  V30 17 C -0.866 0.0 0.0 0
M  V30 18 C -0.866 -1.9999 0.0 0
M  V30 19 C -1.732 -0.4999 0.0 0
M  V30 20 C -1.732 -1.4999 0.0 0
M  V30 21 C -1.0739 -2.9781 0.0 0
M  V30 22 N -2.4751 -2.1691 0.0 0
M  V30 23 C -2.0684 -3.0826 0.0 0
M  V30 24 C -0.4048 -3.7212 0.0 0
M  V30 25 C -3.4533 -1.9612 0.0 0
M  V30 26 C -2.5684 -3.9487 0.0 0
M  V30 27 C -4.1224 -2.7043 0.0 0
M  V30 28 C -5.1006 -2.4964 0.0 0
M  V30 29 C -3.8134 -3.6554 0.0 0
M  V30 30 C -5.7697 -3.2395 0.0 0
M  V30 31 C -4.4825 -4.3985 0.0 0
M  V30 32 C -5.4607 -4.1906 0.0 0
M  V30 33 C -6.1298 -4.9337 0.0 0
M  V30 34 C -7.108 -4.7258 0.0 0
M  V30 35 C -5.8208 -5.8848 0.0 0
M  V30 36 C -7.417 -3.7748 0.0 0
M  V30 37 C -7.7771 -5.469 0.0 0
M  V30 38 C -6.4899 -6.6279 0.0 0
M  V30 39 O -6.7478 -3.0316 0.0 0
M  V30 40 O -8.3951 -3.5669 0.0 0
M  V30 41 C -7.4681 -6.42 0.0 0
M  V30 END ATOM
M  V30 BEGIN BOND
M  V30 1 2 1 2
M  V30 2 2 1 3
M  V30 3 1 1 4
M  V30 4 1 1 5
M  V30 5 2 5 6
M  V30 6 1 5 7
M  V30 7 1 6 8
M  V30 8 2 7 9
M  V30 9 2 8 10
M  V30 10 1 10 11
M  V30 11 1 11 12
M  V30 12 1 12 13
M  V30 13 2 13 14
M  V30 14 1 13 15
M  V30 15 2 15 16
M  V30 16 1 15 17
M  V30 17 1 16 18
M  V30 18 2 17 19
M  V30 19 2 18 20
M  V30 20 1 18 21
M  V30 21 1 20 22
M  V30 22 2 21 23
M  V30 23 1 21 24
M  V30 24 1 22 25
M  V30 25 1 23 26
M  V30 26 1 25 27
M  V30 27 2 27 28
M  V30 28 1 27 29
M  V30 29 1 28 30
M  V30 30 2 29 31
M  V30 31 2 30 32
M  V30 32 1 32 33
M  V30 33 2 33 34
M  V30 34 1 33 35
M  V30 35 1 34 36
M  V30 36 1 34 37
M  V30 37 2 35 38
M  V30 38 2 36 39
M  V30 39 1 36 40
M  V30 40 2 37 41
M  V30 41 1 9 10
M  V30 42 1 19 20
M  V30 43 1 22 23
M  V30 44 1 31 32
M  V30 45 1 38 41
M  V30 END BOND
M  V30 END CTAB
M  END
>  <Molecule ChEMBL ID>
CHEMBL3695775

>  <Smiles>
Cc1c(C)n(Cc2ccc(-c3ccccc3C(=O)O)cc2)c2ccc(C(=O)NCc3ccc(S(N)(=O)=O)cc3)cc12

>  <IC50_nM>
300

>  <Assay Description>
Lanthascreen Competitive Binding Assay: The assay was performed according to manufacturer protocol. A mixture of nM GST-PPARG-LBD, 5 nM Tb-GST-antibody, 5 nM Fluormone Pan-PPAR Green, and serial dilutions of the experimental compound, beginning at 10 ׬M downwards, was added to wells of black 384-well low-volume plates (Greiner) to a total volume of 18 ׬L. All dilutions were made in TR-FRET assay buffer C. DMSO at 2% final concentration was used as a no-ligand control. Experiment was performed in triplicate, and incubated for 2 hours in the dark prior to assay read in Perkin Elmer ViewLux ultra HTS microplate reader. FRET signal was measured by excitation at 340 nm and emission at 520 nm for fluorescein and 490 nm for terbium. Fold change over DMSO was calculated using GraphPad Prism Software (La Jolla, Calif.) by calculating 520 nm/490 nm ratio. Graphs were plotted as fold change of FRET signal for compound treatment over DMSO-only control.

$$$$
CHEMBL469940
Actelion Java MolfileCreator 2.0

  0  0  0  0  0  0              0 V3000
M  V30 BEGIN CTAB
M  V30 COUNTS 19 20 0 0 0
M  V30 BEGIN ATOM
M  V30 1 Cl 10.3923 2.25 0.0 0
M  V30 2 C 9.0932 1.5 0.0 0
M  V30 3 C 7.7942 2.25 0.0 0
M  V30 4 C 9.0932 0.0 0.0 0
M  V30 5 C 6.4952 1.5 0.0 0
M  V30 6 C 7.7942 -0.75 0.0 0
M  V30 7 C 6.4952 0.0 0.0 0
M  V30 8 O 5.1961 -0.75 0.0 0
M  V30 9 S 3.8971 0.0 0.0 0
M  V30 10 O 4.6471 1.299 0.0 0
M  V30 11 O 3.1471 1.299 0.0 0
M  V30 12 C 2.598 -0.75 0.0 0
M  V30 13 C 1.299 0.0 0.0 0
M  V30 14 C 0.0 -0.75 0.0 0
M  V30 15 C -1.299 0.0 0.0 0
M  V30 16 C 0.0 -2.25 0.0 0
M  V30 17 C -2.598 -0.75 0.0 0
M  V30 18 C -1.299 -3.0 0.0 0
M  V30 19 C -2.598 -2.25 0.0 0
M  V30 END ATOM
M  V30 BEGIN BOND
M  V30 1 1 1 2
M  V30 2 2 2 3
M  V30 3 1 2 4
M  V30 4 1 3 5
M  V30 5 2 4 6
M  V30 6 2 5 7
M  V30 7 1 7 8
M  V30 8 1 8 9
M  V30 9 2 9 10
M  V30 10 2 9 11
M  V30 11 1 9 12
M  V30 12 2 12 13
M  V30 13 1 13 14
M  V30 14 2 14 15
M  V30 15 1 14 16
M  V30 16 1 15 17
M  V30 17 2 16 18
M  V30 18 2 17 19
M  V30 19 1 6 7
M  V30 20 1 18 19
M  V30 END BOND
M  V30 END CTAB
M  END
>  <Molecule ChEMBL ID>
CHEMBL469940

>  <Smiles>
O=S(=O)(/C=C/c1ccccc1)Oc1ccc(Cl)cc1

>  <IC50_nM>
302

>  <Assay Description>
Displacement of [3H]BRL49653 from PPARgamma ligand binding domain by scintillation proximity assay

$$$$
CHEMBL3699361
Actelion Java MolfileCreator 2.0

  0  0  0  0  0  0              0 V3000
M  V30 BEGIN CTAB
M  V30 COUNTS 40 44 0 0 0
M  V30 BEGIN ATOM
M  V30 1 F 4.3301 0.9999 0.0 0
M  V30 2 C 4.3301 0.0 0.0 0
M  V30 3 C 3.4641 -0.5 0.0 0
M  V30 4 C 5.1961 -0.5 0.0 0
M  V30 5 C 3.4641 -1.5 0.0 0
M  V30 6 C 2.598 0.0 0.0 0 CFG=2
M  V30 7 N 5.1961 -1.5 0.0 0
M  V30 8 F 2.598 -1.9999 0.0 0
M  V30 9 C 4.3301 -2.0 0.0 0
M  V30 10 N 1.732 -0.5 0.0 0
M  V30 11 C 2.598 1.0 0.0 0
M  V30 12 C 0.866 0.0 0.0 0
M  V30 13 O 0.866 1.0 0.0 0
M  V30 14 C 0.0 -0.5 0.0 0
M  V30 15 C 0.0 -1.4999 0.0 0
M  V30 16 C -0.866 0.0 0.0 0
M  V30 17 C -0.866 -1.9999 0.0 0
M  V30 18 C -1.732 -0.4999 0.0 0
M  V30 19 C -1.732 -1.4999 0.0 0
M  V30 20 C -1.0739 -2.9781 0.0 0
M  V30 21 N -2.4751 -2.1691 0.0 0
M  V30 22 C -2.0684 -3.0826 0.0 0
M  V30 23 C -0.4048 -3.7212 0.0 0
M  V30 24 C -3.4533 -1.9612 0.0 0
M  V30 25 C -2.5684 -3.9487 0.0 0
M  V30 26 C -4.1224 -2.7043 0.0 0
M  V30 27 C -5.1006 -2.4964 0.0 0
M  V30 28 C -3.8134 -3.6554 0.0 0
M  V30 29 C -5.7697 -3.2395 0.0 0
M  V30 30 C -4.4825 -4.3985 0.0 0
M  V30 31 C -5.4607 -4.1906 0.0 0
M  V30 32 C -6.1298 -4.9337 0.0 0
M  V30 33 C -7.108 -4.7258 0.0 0
M  V30 34 C -5.8208 -5.8848 0.0 0
M  V30 35 C -7.417 -3.7748 0.0 0
M  V30 36 C -7.7771 -5.469 0.0 0
M  V30 37 C -6.4899 -6.6279 0.0 0
M  V30 38 O -6.7478 -3.0316 0.0 0
M  V30 39 O -8.3951 -3.5669 0.0 0
M  V30 40 C -7.4681 -6.42 0.0 0
M  V30 END ATOM
M  V30 BEGIN BOND
M  V30 1 1 1 2
M  V30 2 2 2 3
M  V30 3 1 2 4
M  V30 4 1 3 5
M  V30 5 1 3 6
M  V30 6 2 4 7
M  V30 7 1 5 8
M  V30 8 2 5 9
M  V30 9 1 6 10
M  V30 10 1 6 11 CFG=3
M  V30 11 1 10 12
M  V30 12 2 12 13
M  V30 13 1 12 14
M  V30 14 2 14 15
M  V30 15 1 14 16
M  V30 16 1 15 17
M  V30 17 2 16 18
M  V30 18 2 17 19
M  V30 19 1 17 20
M  V30 20 1 19 21
M  V30 21 2 20 22
M  V30 22 1 20 23
M  V30 23 1 21 24
M  V30 24 1 22 25
M  V30 25 1 24 26
M  V30 26 2 26 27
M  V30 27 1 26 28
M  V30 28 1 27 29
M  V30 29 2 28 30
M  V30 30 2 29 31
M  V30 31 1 31 32
M  V30 32 2 32 33
M  V30 33 1 32 34
M  V30 34 1 33 35
M  V30 35 1 33 36
M  V30 36 2 34 37
M  V30 37 2 35 38
M  V30 38 1 35 39
M  V30 39 2 36 40
M  V30 40 1 7 9
M  V30 41 1 18 19
M  V30 42 1 21 22
M  V30 43 1 30 31
M  V30 44 1 37 40
M  V30 END BOND
M  V30 BEGIN COLLECTION
M  V30 MDLV30/STEABS ATOMS=(1 6)
M  V30 END COLLECTION
M  V30 END CTAB
M  END
>  <Molecule ChEMBL ID>
CHEMBL3699361

>  <Smiles>
Cc1c(C)n(Cc2ccc(-c3ccccc3C(=O)O)cc2)c2ccc(C(=O)N[C@H](C)c3c(F)cncc3F)cc12

>  <IC50_nM>
309

>  <Assay Description>
Lanthascreen Competitive Binding Assay: The assay was performed according to manufacturer protocol. A mixture of nM GST-PPARG-LBD, 5 nM Tb-GST-antibody, 5 nM Fluormone Pan-PPAR Green, and serial dilutions of the experimental compound, beginning at 10 ׬M downwards, was added to wells of black 384-well low-volume plates (Greiner) to a total volume of 18 ׬L. All dilutions were made in TR-FRET assay buffer C. DMSO at 2% final concentration was used as a no-ligand control. Experiment was performed in triplicate, and incubated for 2 hours in the dark prior to assay read in Perkin Elmer ViewLux ultra HTS microplate reader. FRET signal was measured by excitation at 340 nm and emission at 520 nm for fluorescein and 490 nm for terbium. Fold change over DMSO was calculated using GraphPad Prism Software (La Jolla, Calif.) by calculating 520 nm/490 nm ratio. Graphs were plotted as fold change of FRET signal for compound treatment over DMSO-only control.

$$$$
CHEMBL3695775
Actelion Java MolfileCreator 2.0

  0  0  0  0  0  0              0 V3000
M  V30 BEGIN CTAB
M  V30 COUNTS 41 45 0 0 0
M  V30 BEGIN ATOM
M  V30 1 S 6.0621 -1.9999 0.0 0
M  V30 2 O 5.5621 -2.866 0.0 0
M  V30 3 O 6.5621 -1.1339 0.0 0
M  V30 4 N 6.9282 -2.5 0.0 0
M  V30 5 C 5.1961 -1.4999 0.0 0
M  V30 6 C 5.1961 -0.5 0.0 0
M  V30 7 C 4.3301 -1.9999 0.0 0
M  V30 8 C 4.3301 0.0 0.0 0
M  V30 9 C 3.4641 -1.5 0.0 0
M  V30 10 C 3.4641 -0.5 0.0 0
M  V30 11 C 2.598 0.0 0.0 0
M  V30 12 N 1.732 -0.5 0.0 0
M  V30 13 C 0.866 0.0 0.0 0
M  V30 14 O 0.866 1.0 0.0 0
M  V30 15 C 0.0 -0.5 0.0 0
M  V30 16 C 0.0 -1.4999 0.0 0
M  V30 17 C -0.866 0.0 0.0 0
M  V30 18 C -0.866 -1.9999 0.0 0
M  V30 19 C -1.732 -0.4999 0.0 0
M  V30 20 C -1.732 -1.4999 0.0 0
M  V30 21 C -1.0739 -2.9781 0.0 0
M  V30 22 N -2.4751 -2.1691 0.0 0
M  V30 23 C -2.0684 -3.0826 0.0 0
M  V30 24 C -0.4048 -3.7212 0.0 0
M  V30 25 C -3.4533 -1.9612 0.0 0
M  V30 26 C -2.5684 -3.9487 0.0 0
M  V30 27 C -4.1224 -2.7043 0.0 0
M  V30 28 C -5.1006 -2.4964 0.0 0
M  V30 29 C -3.8134 -3.6554 0.0 0
M  V30 30 C -5.7697 -3.2395 0.0 0
M  V30 31 C -4.4825 -4.3985 0.0 0
M  V30 32 C -5.4607 -4.1906 0.0 0
M  V30 33 C -6.1298 -4.9337 0.0 0
M  V30 34 C -7.108 -4.7258 0.0 0
M  V30 35 C -5.8208 -5.8848 0.0 0
M  V30 36 C -7.417 -3.7748 0.0 0
M  V30 37 C -7.7771 -5.469 0.0 0
M  V30 38 C -6.4899 -6.6279 0.0 0
M  V30 39 O -6.7478 -3.0316 0.0 0
M  V30 40 O -8.3951 -3.5669 0.0 0
M  V30 41 C -7.4681 -6.42 0.0 0
M  V30 END ATOM
M  V30 BEGIN BOND
M  V30 1 2 1 2
M  V30 2 2 1 3
M  V30 3 1 1 4
M  V30 4 1 1 5
M  V30 5 2 5 6
M  V30 6 1 5 7
M  V30 7 1 6 8
M  V30 8 2 7 9
M  V30 9 2 8 10
M  V30 10 1 10 11
M  V30 11 1 11 12
M  V30 12 1 12 13
M  V30 13 2 13 14
M  V30 14 1 13 15
M  V30 15 2 15 16
M  V30 16 1 15 17
M  V30 17 1 16 18
M  V30 18 2 17 19
M  V30 19 2 18 20
M  V30 20 1 18 21
M  V30 21 1 20 22
M  V30 22 2 21 23
M  V30 23 1 21 24
M  V30 24 1 22 25
M  V30 25 1 23 26
M  V30 26 1 25 27
M  V30 27 2 27 28
M  V30 28 1 27 29
M  V30 29 1 28 30
M  V30 30 2 29 31
M  V30 31 2 30 32
M  V30 32 1 32 33
M  V30 33 2 33 34
M  V30 34 1 33 35
M  V30 35 1 34 36
M  V30 36 1 34 37
M  V30 37 2 35 38
M  V30 38 2 36 39
M  V30 39 1 36 40
M  V30 40 2 37 41
M  V30 41 1 9 10
M  V30 42 1 19 20
M  V30 43 1 22 23
M  V30 44 1 31 32
M  V30 45 1 38 41
M  V30 END BOND
M  V30 END CTAB
M  END
>  <Molecule ChEMBL ID>
CHEMBL3695775

>  <Smiles>
Cc1c(C)n(Cc2ccc(-c3ccccc3C(=O)O)cc2)c2ccc(C(=O)NCc3ccc(S(N)(=O)=O)cc3)cc12

>  <IC50_nM>
312

>  <Assay Description>
Displacement of fluormone PPAR green tracer ligand from recombinant GST-tagged PPARgamma ligand binding domain (unknown origin) incubated for 4 hrs by competitive fluorescence polarization binding assay

$$$$
CHEMBL3678122
Actelion Java MolfileCreator 2.0

  0  0  0  0  0  0              0 V3000
M  V30 BEGIN CTAB
M  V30 COUNTS 38 41 0 0 0
M  V30 BEGIN ATOM
M  V30 1 O 9.8567 -5.6093 0.0 0
M  V30 2 C 8.8785 -5.8172 0.0 0
M  V30 3 N 8.5695 -6.7682 0.0 0
M  V30 4 C 8.2094 -5.074 0.0 0
M  V30 5 C 7.5914 -6.9761 0.0 0 CFG=2
M  V30 6 C 7.2313 -5.2819 0.0 0
M  V30 7 C 8.5184 -4.123 0.0 0
M  V30 8 C 7.2824 -7.9272 0.0 0
M  V30 9 C 6.9222 -6.233 0.0 0
M  V30 10 C 6.5621 -4.5388 0.0 0
M  V30 11 C 7.8493 -3.3798 0.0 0
M  V30 12 C 7.9515 -8.6703 0.0 0
M  V30 13 C 6.3042 -8.1351 0.0 0
M  V30 14 C 6.8711 -3.5877 0.0 0
M  V30 15 C 5.5621 -4.5388 0.0 0
M  V30 16 C 7.6425 -9.6214 0.0 0
M  V30 17 C 5.9952 -9.0862 0.0 0
M  V30 18 N 6.0621 -3.0 0.0 0
M  V30 19 C 5.2531 -3.5877 0.0 0
M  V30 20 C 4.9743 -5.3478 0.0 0
M  V30 21 C 6.6643 -9.8293 0.0 0
M  V30 22 C 8.3116 -10.3645 0.0 0
M  V30 23 C 6.0621 -1.9999 0.0 0
M  V30 24 C 4.3021 -3.2787 0.0 0
M  V30 25 C 9.2897 -10.1566 0.0 0
M  V30 26 C 8.0026 -11.3156 0.0 0
M  V30 27 C 5.1961 -1.4999 0.0 0
M  V30 28 C 5.1961 -0.5 0.0 0
M  V30 29 C 4.3301 -1.9999 0.0 0
M  V30 30 C 4.3301 0.0 0.0 0
M  V30 31 C 3.4641 -1.5 0.0 0
M  V30 32 C 3.4641 -0.5 0.0 0
M  V30 33 O 2.598 0.0 0.0 0
M  V30 34 C 1.732 -0.5 0.0 0 CFG=2
M  V30 35 C 0.866 0.0 0.0 0
M  V30 36 C 1.732 -1.5 0.0 0
M  V30 37 O 0.866 1.0 0.0 0
M  V30 38 O 0.0 -0.5 0.0 0
M  V30 END ATOM
M  V30 BEGIN BOND
M  V30 1 2 1 2
M  V30 2 1 2 3
M  V30 3 1 2 4
M  V30 4 1 3 5
M  V30 5 2 4 6
M  V30 6 1 4 7
M  V30 7 1 5 8
M  V30 8 1 5 9 CFG=3
M  V30 9 1 6 10
M  V30 10 2 7 11
M  V30 11 2 8 12
M  V30 12 1 8 13
M  V30 13 2 10 14
M  V30 14 1 10 15
M  V30 15 1 12 16
M  V30 16 2 13 17
M  V30 17 1 14 18
M  V30 18 2 15 19
M  V30 19 1 15 20
M  V30 20 2 16 21
M  V30 21 1 16 22
M  V30 22 1 18 23
M  V30 23 1 19 24
M  V30 24 1 22 25
M  V30 25 1 22 26
M  V30 26 1 23 27
M  V30 27 2 27 28
M  V30 28 1 27 29
M  V30 29 1 28 30
M  V30 30 2 29 31
M  V30 31 2 30 32
M  V30 32 1 32 33
M  V30 33 1 33 34
M  V30 34 1 34 35
M  V30 35 1 34 36 CFG=1
M  V30 36 2 35 37
M  V30 37 1 35 38
M  V30 38 1 11 14
M  V30 39 1 17 21
M  V30 40 1 18 19
M  V30 41 1 31 32
M  V30 END BOND
M  V30 BEGIN COLLECTION
M  V30 MDLV30/STEABS ATOMS=(2 5 34)
M  V30 END COLLECTION
M  V30 END CTAB
M  END
>  <Molecule ChEMBL ID>
CHEMBL3678122

>  <Smiles>
Cc1c(C)n(Cc2ccc(O[C@@H](C)C(=O)O)cc2)c2ccc(C(=O)N[C@@H](C)c3cccc(C(C)C)c3)cc12

>  <IC50_nM>
313

>  <Assay Description>
Lanthascreen Competitive Binding Assay: The assay was performed according to manufacturer protocol. A mixture of 5 nM GST-PPARG-LBD, 5 nM Tb-GST-antibody, 5 nM Fluormone Pan- PPAR Green, and serial dilutions of the experimental compound, beginning at 10 ׬� downwards, was added to wells of black 384-well low- volume plates (Greiner) to a total volume of 18 xL. All dilutions were made in TR-FRET assay buffer C. DMSO at 2% final concentration was used as a no-ligand control. Experiment was performed in triplicate, and incubated for 2 hours in the dark prior to assay read in Perkin Elmer ViewLux ultra HTS microplate reader. FRET signal was measured by excitation at 340 nm and emission at 520 nm for fluorescein and 490 nm for terbium.

$$$$
CHEMBL211371
Actelion Java MolfileCreator 2.0

  0  0  0  0  0  0              0 V3000
M  V30 BEGIN CTAB
M  V30 COUNTS 31 34 0 0 0
M  V30 BEGIN ATOM
M  V30 1 O 4.3301 0.0 0.0 0
M  V30 2 C 3.4641 -0.5 0.0 0
M  V30 3 O 3.4641 -1.5 0.0 0
M  V30 4 C 2.598 0.0 0.0 0 CFG=1
M  V30 5 O 1.732 -0.5 0.0 0
M  V30 6 C 2.598 1.0 0.0 0
M  V30 7 C 0.866 0.0 0.0 0
M  V30 8 C 1.732 1.5 0.0 0
M  V30 9 C 0.0 -0.5 0.0 0
M  V30 10 C 0.866 1.0 0.0 0
M  V30 11 C 1.732 2.5 0.0 0
M  V30 12 C 0.0 1.5 0.0 0
M  V30 13 C 0.866 3.0 0.0 0
M  V30 14 C 0.0 2.5 0.0 0
M  V30 15 C -0.951 1.1909 0.0 0
M  V30 16 N -0.951 2.809 0.0 0
M  V30 17 C -1.5388 2.0 0.0 0
M  V30 18 C -1.26 3.76 0.0 0
M  V30 19 C -2.2382 3.9679 0.0 0
M  V30 20 N -2.6449 4.8815 0.0 0
M  V30 21 C -2.9813 3.2988 0.0 0
M  V30 22 C -3.6394 4.777 0.0 0
M  V30 23 O -3.8473 3.7988 0.0 0
M  V30 24 C -2.8768 2.3043 0.0 0
M  V30 25 C -4.3086 5.5201 0.0 0
M  V30 26 C -3.9995 6.4712 0.0 0
M  V30 27 C -5.2867 5.3122 0.0 0
M  V30 28 C -4.6687 7.2143 0.0 0
M  V30 29 C -3.0214 6.6791 0.0 0
M  V30 30 C -5.9558 6.0553 0.0 0
M  V30 31 C -5.6468 7.0064 0.0 0
M  V30 END ATOM
M  V30 BEGIN BOND
M  V30 1 2 1 2
M  V30 2 1 2 3
M  V30 3 1 2 4
M  V30 4 1 4 5 CFG=1
M  V30 5 1 4 6
M  V30 6 1 5 7
M  V30 7 1 6 8
M  V30 8 1 7 9
M  V30 9 2 8 10
M  V30 10 1 8 11
M  V30 11 1 10 12
M  V30 12 2 11 13
M  V30 13 2 12 14
M  V30 14 1 12 15
M  V30 15 1 14 16
M  V30 16 2 15 17
M  V30 17 1 16 18
M  V30 18 1 18 19
M  V30 19 1 19 20
M  V30 20 2 19 21
M  V30 21 2 20 22
M  V30 22 1 21 23
M  V30 23 1 21 24
M  V30 24 1 22 25
M  V30 25 2 25 26
M  V30 26 1 25 27
M  V30 27 1 26 28
M  V30 28 1 26 29
M  V30 29 2 27 30
M  V30 30 2 28 31
M  V30 31 1 13 14
M  V30 32 1 16 17
M  V30 33 1 22 23
M  V30 34 1 30 31
M  V30 END BOND
M  V30 BEGIN COLLECTION
M  V30 MDLV30/STERAC1 ATOMS=(1 4)
M  V30 END COLLECTION
M  V30 END CTAB
M  END
>  <Molecule ChEMBL ID>
CHEMBL211371

>  <Smiles>
CCOC(Cc1ccc2c(ccn2Cc2nc(-c3ccccc3C)oc2C)c1)C(=O)O

>  <IC50_nM>
316

>  <Assay Description>
Binding affinity to PPARgamma by radio ligand binding assay

$$$$
CHEMBL248906
Actelion Java MolfileCreator 2.0

  0  0  0  0  0  0              0 V3000
M  V30 BEGIN CTAB
M  V30 COUNTS 35 36 0 0 0
M  V30 BEGIN ATOM
M  V30 1 F 9.5262 1.0 0.0 0
M  V30 2 C 9.5262 0.0 0.0 0
M  V30 3 C 8.6602 -0.5 0.0 0
M  V30 4 C 10.3923 -0.4999 0.0 0
M  V30 5 N 7.7942 0.0 0.0 0
M  V30 6 C 8.6602 -1.5 0.0 0
M  V30 7 C 10.3923 -1.4999 0.0 0
M  V30 8 C 6.9282 -0.5 0.0 0
M  V30 9 C 9.5262 -1.9999 0.0 0
M  V30 10 F 11.2583 -1.9999 0.0 0
M  V30 11 O 6.9282 -1.4999 0.0 0
M  V30 12 N 6.0621 0.0 0.0 0
M  V30 13 C 6.0621 0.9999 0.0 0
M  V30 14 C 5.1961 -0.5 0.0 0
M  V30 15 C 6.9282 1.4999 0.0 0
M  V30 16 C 4.3301 0.0 0.0 0
M  V30 17 C 6.9282 2.4999 0.0 0
M  V30 18 C 3.4641 -0.5 0.0 0
M  V30 19 C 7.7942 2.9999 0.0 0
M  V30 20 C 6.0621 3.0 0.0 0
M  V30 21 C 2.598 0.0 0.0 0
M  V30 22 C 7.7942 3.9999 0.0 0
M  V30 23 C 6.0621 3.9999 0.0 0
M  V30 24 C 1.732 -0.5 0.0 0
M  V30 25 C 6.9282 4.4999 0.0 0
M  V30 26 C 0.866 0.0 0.0 0
M  V30 27 O 6.9282 5.4999 0.0 0
M  V30 28 C 0.0 -0.5 0.0 0
M  V30 29 C 6.0621 5.9999 0.0 0 CFG=2
M  V30 30 C 5.1961 5.5 0.0 0
M  V30 31 C 6.0621 7.0 0.0 0
M  V30 32 C 6.0621 5.0 0.0 0
M  V30 33 O 5.1961 4.5 0.0 0
M  V30 34 O 4.3301 6.0 0.0 0
M  V30 35 C 5.1961 7.5 0.0 0
M  V30 END ATOM
M  V30 BEGIN BOND
M  V30 1 1 1 2
M  V30 2 2 2 3
M  V30 3 1 2 4
M  V30 4 1 3 5
M  V30 5 1 3 6
M  V30 6 2 4 7
M  V30 7 1 5 8
M  V30 8 2 6 9
M  V30 9 1 7 10
M  V30 10 2 8 11
M  V30 11 1 8 12
M  V30 12 1 12 13
M  V30 13 1 12 14
M  V30 14 1 13 15
M  V30 15 1 14 16
M  V30 16 1 15 17
M  V30 17 1 16 18
M  V30 18 2 17 19
M  V30 19 1 17 20
M  V30 20 1 18 21
M  V30 21 1 19 22
M  V30 22 2 20 23
M  V30 23 1 21 24
M  V30 24 2 22 25
M  V30 25 1 24 26
M  V30 26 1 25 27
M  V30 27 1 26 28
M  V30 28 1 27 29
M  V30 29 1 29 30
M  V30 30 1 29 31
M  V30 31 1 29 32 CFG=1
M  V30 32 2 30 33
M  V30 33 1 30 34
M  V30 34 1 31 35
M  V30 35 1 7 9
M  V30 36 1 23 25
M  V30 END BOND
M  V30 BEGIN COLLECTION
M  V30 MDLV30/STEABS ATOMS=(1 29)
M  V30 END COLLECTION
M  V30 END CTAB
M  END
>  <Molecule ChEMBL ID>
CHEMBL248906

>  <Smiles>
CCCCCCCN(CCc1ccc(O[C@@](C)(CC)C(=O)O)cc1)C(=O)Nc1ccc(F)cc1F

>  <IC50_nM>
316

>  <Assay Description>
Inhibition of human Peroxisome proliferator activated receptor gamma

$$$$
CHEMBL3678080
Actelion Java MolfileCreator 2.0

  0  0  0  0  0  0              0 V3000
M  V30 BEGIN CTAB
M  V30 COUNTS 32 35 0 0 0
M  V30 BEGIN ATOM
M  V30 1 F 8.8737 -1.5453 0.0 0
M  V30 2 C 8.5647 -2.4964 0.0 0
M  V30 3 C 7.5865 -2.7043 0.0 0
M  V30 4 C 9.2338 -3.2395 0.0 0
M  V30 5 C 7.2775 -3.6554 0.0 0
M  V30 6 C 6.9174 -1.9612 0.0 0
M  V30 7 C 8.9248 -4.1906 0.0 0
M  V30 8 C 7.9466 -4.3985 0.0 0
M  V30 9 N 5.9392 -2.1691 0.0 0
M  V30 10 F 9.5939 -4.9337 0.0 0
M  V30 11 C 5.1961 -1.4999 0.0 0
M  V30 12 C 5.5325 -3.0826 0.0 0
M  V30 13 C 4.3301 -1.9999 0.0 0
M  V30 14 C 5.1961 -0.4999 0.0 0
M  V30 15 C 4.538 -2.9781 0.0 0
M  V30 16 C 3.4641 -1.5 0.0 0
M  V30 17 C 4.3301 0.0 0.0 0
M  V30 18 C 3.4641 -0.5 0.0 0
M  V30 19 C 2.598 0.0 0.0 0
M  V30 20 O 2.598 1.0 0.0 0
M  V30 21 N 1.732 -0.5 0.0 0
M  V30 22 C 0.866 0.0 0.0 0
M  V30 23 C 0.0 -0.5 0.0 0
M  V30 24 C -0.866 0.0 0.0 0
M  V30 25 C 0.0 -1.4999 0.0 0
M  V30 26 O -0.866 1.0 0.0 0
M  V30 27 C -1.732 -0.4999 0.0 0
M  V30 28 C -0.866 -1.9999 0.0 0
M  V30 29 C -1.732 1.5 0.0 0
M  V30 30 C -1.732 -1.4999 0.0 0
M  V30 31 O -2.598 -1.9999 0.0 0
M  V30 32 C -2.598 -2.9999 0.0 0
M  V30 END ATOM
M  V30 BEGIN BOND
M  V30 1 1 1 2
M  V30 2 2 2 3
M  V30 3 1 2 4
M  V30 4 1 3 5
M  V30 5 1 3 6
M  V30 6 2 4 7
M  V30 7 2 5 8
M  V30 8 1 6 9
M  V30 9 1 7 10
M  V30 10 1 9 11
M  V30 11 1 9 12
M  V30 12 2 11 13
M  V30 13 1 11 14
M  V30 14 2 12 15
M  V30 15 1 13 16
M  V30 16 2 14 17
M  V30 17 2 16 18
M  V30 18 1 18 19
M  V30 19 2 19 20
M  V30 20 1 19 21
M  V30 21 1 21 22
M  V30 22 1 22 23
M  V30 23 2 23 24
M  V30 24 1 23 25
M  V30 25 1 24 26
M  V30 26 1 24 27
M  V30 27 2 25 28
M  V30 28 1 26 29
M  V30 29 2 27 30
M  V30 30 1 30 31
M  V30 31 1 31 32
M  V30 32 1 7 8
M  V30 33 1 13 15
M  V30 34 1 17 18
M  V30 35 1 28 30
M  V30 END BOND
M  V30 END CTAB
M  END
>  <Molecule ChEMBL ID>
CHEMBL3678080

>  <Smiles>
COc1ccc(CNC(=O)c2ccc3c(ccn3Cc3ccc(F)cc3F)c2)c(OC)c1

>  <IC50_nM>
317

>  <Assay Description>
Lanthascreen Competitive Binding Assay: The assay was performed according to manufacturer protocol. A mixture of 5 nM GST-PPARG-LBD, 5 nM Tb-GST-antibody, 5 nM Fluormone Pan- PPAR Green, and serial dilutions of the experimental compound, beginning at 10 ׬� downwards, was added to wells of black 384-well low- volume plates (Greiner) to a total volume of 18 xL. All dilutions were made in TR-FRET assay buffer C. DMSO at 2% final concentration was used as a no-ligand control. Experiment was performed in triplicate, and incubated for 2 hours in the dark prior to assay read in Perkin Elmer ViewLux ultra HTS microplate reader. FRET signal was measured by excitation at 340 nm and emission at 520 nm for fluorescein and 490 nm for terbium.

$$$$
CHEMBL373048
Actelion Java MolfileCreator 2.0

  0  0  0  0  0  0              0 V3000
M  V30 BEGIN CTAB
M  V30 COUNTS 34 37 0 0 0
M  V30 BEGIN ATOM
M  V30 1 F 3.8301 0.866 0.0 0
M  V30 2 C 4.3301 0.0 0.0 0
M  V30 3 F 5.1961 0.4999 0.0 0
M  V30 4 F 4.8301 -0.866 0.0 0
M  V30 5 C 3.4641 -0.5 0.0 0
M  V30 6 C 2.598 0.0 0.0 0
M  V30 7 C 3.4641 -1.4999 0.0 0
M  V30 8 C 1.732 -0.5 0.0 0
M  V30 9 C 2.598 -2.0 0.0 0
M  V30 10 O 0.866 0.0 0.0 0
M  V30 11 C 1.732 -1.5 0.0 0
M  V30 12 C 0.0 -0.5 0.0 0
M  V30 13 C -0.9135 -0.0932 0.0 0
M  V30 14 C -0.1045 -1.4945 0.0 0
M  V30 15 N -1.5826 -0.8364 0.0 0
M  V30 16 C -1.1214 0.8848 0.0 0
M  V30 17 C -1.0826 -1.7024 0.0 0
M  V30 18 C 0.5646 -2.2376 0.0 0
M  V30 19 C -2.5771 -0.7318 0.0 0
M  V30 20 O -0.3783 1.554 0.0 0
M  V30 21 O -2.0725 1.1939 0.0 0
M  V30 22 C -1.3916 -2.6534 0.0 0
M  V30 23 C 0.2555 -3.1887 0.0 0
M  V30 24 C -2.9839 0.1816 0.0 0
M  V30 25 C -3.1649 -1.5408 0.0 0
M  V30 26 C -0.7225 -3.3966 0.0 0
M  V30 27 O 0.9247 -3.9318 0.0 0
M  V30 28 C -3.9784 0.2861 0.0 0
M  V30 29 C -4.1595 -1.4363 0.0 0
M  V30 30 C -4.5662 -0.5228 0.0 0
M  V30 31 C -5.5607 -0.4182 0.0 0
M  V30 32 C -5.6652 -1.4128 0.0 0
M  V30 33 C -6.5552 -0.3137 0.0 0
M  V30 34 C -5.4562 0.5762 0.0 0
M  V30 END ATOM
M  V30 BEGIN BOND
M  V30 1 1 1 2
M  V30 2 1 2 3
M  V30 3 1 2 4
M  V30 4 1 2 5
M  V30 5 2 5 6
M  V30 6 1 5 7
M  V30 7 1 6 8
M  V30 8 2 7 9
M  V30 9 1 8 10
M  V30 10 2 8 11
M  V30 11 1 10 12
M  V30 12 2 12 13
M  V30 13 1 12 14
M  V30 14 1 13 15
M  V30 15 1 13 16
M  V30 16 2 14 17
M  V30 17 1 14 18
M  V30 18 1 15 19
M  V30 19 2 16 20
M  V30 20 1 16 21
M  V30 21 1 17 22
M  V30 22 2 18 23
M  V30 23 2 19 24
M  V30 24 1 19 25
M  V30 25 2 22 26
M  V30 26 1 23 27
M  V30 27 1 24 28
M  V30 28 2 25 29
M  V30 29 2 28 30
M  V30 30 1 30 31
M  V30 31 1 31 32
M  V30 32 1 31 33
M  V30 33 1 31 34
M  V30 34 1 9 11
M  V30 35 1 15 17
M  V30 36 1 23 26
M  V30 37 1 29 30
M  V30 END BOND
M  V30 END CTAB
M  END
>  <Molecule ChEMBL ID>
CHEMBL373048

>  <Smiles>
CC(C)(C)c1ccc(-n2c(C(=O)O)c(Oc3cccc(C(F)(F)F)c3)c3cc(O)ccc32)cc1

>  <IC50_nM>
318

>  <Assay Description>
Inhibitory concentration against human peroxisome proliferator activated receptor gamma in SPA assay

$$$$
CHEMBL213902
Actelion Java MolfileCreator 2.0

  0  0  0  0  0  0              0 V3000
M  V30 BEGIN CTAB
M  V30 COUNTS 29 32 0 0 0
M  V30 BEGIN ATOM
M  V30 1 O 3.4641 -0.5 0.0 0
M  V30 2 C 2.598 0.0 0.0 0
M  V30 3 O 2.598 1.0 0.0 0
M  V30 4 C 1.732 -0.5 0.0 0 CFG=1
M  V30 5 O 1.732 -1.5 0.0 0
M  V30 6 C 0.866 0.0 0.0 0
M  V30 7 C 2.598 -1.9999 0.0 0
M  V30 8 C 0.0 -0.5 0.0 0
M  V30 9 C 0.0 -1.4999 0.0 0
M  V30 10 C -0.866 0.0 0.0 0
M  V30 11 C -0.866 -1.9999 0.0 0
M  V30 12 C -1.732 -0.4999 0.0 0
M  V30 13 C -1.732 -1.4999 0.0 0
M  V30 14 C -1.0739 -2.9781 0.0 0
M  V30 15 N -2.4751 -2.1691 0.0 0
M  V30 16 C -2.0684 -3.0826 0.0 0
M  V30 17 C -3.4533 -1.9612 0.0 0
M  V30 18 C -4.1224 -2.7043 0.0 0
M  V30 19 N -5.1169 -2.5998 0.0 0
M  V30 20 C -3.9145 -3.6825 0.0 0
M  V30 21 C -5.5237 -3.5133 0.0 0
M  V30 22 O -4.7805 -4.1825 0.0 0
M  V30 23 C -3.001 -4.0892 0.0 0
M  V30 24 C -6.5018 -3.7212 0.0 0
M  V30 25 C -7.171 -2.9781 0.0 0
M  V30 26 C -6.8108 -4.6723 0.0 0
M  V30 27 C -8.1491 -3.186 0.0 0
M  V30 28 C -7.789 -4.8802 0.0 0
M  V30 29 C -8.4581 -4.1371 0.0 0
M  V30 END ATOM
M  V30 BEGIN BOND
M  V30 1 2 1 2
M  V30 2 1 2 3
M  V30 3 1 2 4
M  V30 4 1 4 5 CFG=1
M  V30 5 1 4 6
M  V30 6 1 5 7
M  V30 7 1 6 8
M  V30 8 2 8 9
M  V30 9 1 8 10
M  V30 10 1 9 11
M  V30 11 2 10 12
M  V30 12 2 11 13
M  V30 13 1 11 14
M  V30 14 1 13 15
M  V30 15 2 14 16
M  V30 16 1 15 17
M  V30 17 1 17 18
M  V30 18 1 18 19
M  V30 19 2 18 20
M  V30 20 2 19 21
M  V30 21 1 20 22
M  V30 22 1 20 23
M  V30 23 1 21 24
M  V30 24 2 24 25
M  V30 25 1 24 26
M  V30 26 1 25 27
M  V30 27 2 26 28
M  V30 28 2 27 29
M  V30 29 1 12 13
M  V30 30 1 15 16
M  V30 31 1 21 22
M  V30 32 1 28 29
M  V30 END BOND
M  V30 BEGIN COLLECTION
M  V30 MDLV30/STERAC1 ATOMS=(1 4)
M  V30 END COLLECTION
M  V30 END CTAB
M  END
>  <Molecule ChEMBL ID>
CHEMBL213902

>  <Smiles>
COC(Cc1ccc2c(ccn2Cc2nc(-c3ccccc3)oc2C)c1)C(=O)O

>  <IC50_nM>
318

>  <Assay Description>
Binding affinity to PPARgamma by radio ligand binding assay

$$$$
CHEMBL3678138
Actelion Java MolfileCreator 2.0

  0  0  0  0  0  0              0 V3000
M  V30 BEGIN CTAB
M  V30 COUNTS 38 42 0 0 0
M  V30 BEGIN ATOM
M  V30 1 O 2.5993 -0.7503 0.0 0
M  V30 2 C 3.899 0.0 0.0 0
M  V30 3 N 5.1987 -0.7503 0.0 0
M  V30 4 C 3.899 1.5007 0.0 0
M  V30 5 C 6.4983 0.0 0.0 0 CFG=2
M  V30 6 C 2.5993 2.2511 0.0 0
M  V30 7 C 5.1987 2.2511 0.0 0
M  V30 8 C 7.798 -0.7503 0.0 0
M  V30 9 C 6.4983 1.5007 0.0 0
M  V30 10 C 2.5993 3.7518 0.0 0
M  V30 11 C 5.1987 3.7518 0.0 0
M  V30 12 C 7.798 -2.2511 0.0 0
M  V30 13 C 9.0977 0.0 0.0 0
M  V30 14 C 3.899 4.5022 0.0 0
M  V30 15 C 1.484 4.756 0.0 0
M  V30 16 C 9.0977 -3.0014 0.0 0
M  V30 17 C 10.3974 -0.7503 0.0 0
M  V30 18 N 3.587 5.9701 0.0 0
M  V30 19 C 2.0944 6.127 0.0 0
M  V30 20 C 0.0161 4.444 0.0 0
M  V30 21 C 10.3974 -2.2511 0.0 0
M  V30 22 C 4.5912 7.0854 0.0 0
M  V30 23 C 1.3441 7.4267 0.0 0
M  V30 24 C 11.697 -3.0014 0.0 0
M  V30 25 C 4.1274 8.5127 0.0 0
M  V30 26 C 11.697 -4.5022 0.0 0
M  V30 27 C 12.9967 -2.2511 0.0 0
M  V30 28 C 5.1316 9.6279 0.0 0
M  V30 29 C 2.6595 8.8247 0.0 0
M  V30 30 C 4.6577 11.0404 0.0 0
M  V30 31 C 2.1957 10.252 0.0 0
M  V30 32 C 3.1999 11.3672 0.0 0
M  V30 33 C 2.7361 12.7945 0.0 0
M  V30 34 C 4.2348 12.8731 0.0 0
M  V30 35 C 1.399 13.4758 0.0 0
M  V30 36 C 1.4775 11.9772 0.0 0
M  V30 37 O 4.9161 14.2102 0.0 0
M  V30 38 O 5.0725 11.644 0.0 0
M  V30 END ATOM
M  V30 BEGIN BOND
M  V30 1 2 1 2
M  V30 2 1 2 3
M  V30 3 1 2 4
M  V30 4 1 3 5
M  V30 5 2 4 6
M  V30 6 1 4 7
M  V30 7 1 5 8
M  V30 8 1 5 9 CFG=1
M  V30 9 1 6 10
M  V30 10 2 7 11
M  V30 11 2 8 12
M  V30 12 1 8 13
M  V30 13 2 10 14
M  V30 14 1 10 15
M  V30 15 1 12 16
M  V30 16 2 13 17
M  V30 17 1 14 18
M  V30 18 2 15 19
M  V30 19 1 15 20
M  V30 20 2 16 21
M  V30 21 1 18 22
M  V30 22 1 19 23
M  V30 23 1 21 24
M  V30 24 1 22 25
M  V30 25 1 24 26
M  V30 26 1 24 27
M  V30 27 2 25 28
M  V30 28 1 25 29
M  V30 29 1 28 30
M  V30 30 2 29 31
M  V30 31 2 30 32
M  V30 32 1 32 33
M  V30 33 1 33 34
M  V30 34 1 33 35
M  V30 35 1 33 36
M  V30 36 2 34 37
M  V30 37 1 34 38
M  V30 38 1 11 14
M  V30 39 1 17 21
M  V30 40 1 18 19
M  V30 41 1 31 32
M  V30 42 1 35 36
M  V30 END BOND
M  V30 BEGIN COLLECTION
M  V30 MDLV30/STEABS ATOMS=(1 5)
M  V30 END COLLECTION
M  V30 END CTAB
M  END
>  <Molecule ChEMBL ID>
CHEMBL3678138

>  <Smiles>
Cc1c(C)n(Cc2ccc(C3(C(=O)O)CC3)cc2)c2ccc(C(=O)N[C@@H](C)c3ccc(C(C)C)cc3)cc12

>  <IC50_nM>
318

>  <Assay Description>
Lanthascreen Competitive Binding Assay: The assay was performed according to manufacturer protocol. A mixture of 5 nM GST-PPARG-LBD, 5 nM Tb-GST-antibody, 5 nM Fluormone Pan- PPAR Green, and serial dilutions of the experimental compound, beginning at 10 ׬� downwards, was added to wells of black 384-well low- volume plates (Greiner) to a total volume of 18 xL. All dilutions were made in TR-FRET assay buffer C. DMSO at 2% final concentration was used as a no-ligand control. Experiment was performed in triplicate, and incubated for 2 hours in the dark prior to assay read in Perkin Elmer ViewLux ultra HTS microplate reader. FRET signal was measured by excitation at 340 nm and emission at 520 nm for fluorescein and 490 nm for terbium.

$$$$
CHEMBL3598149
Actelion Java MolfileCreator 2.0

  0  0  0  0  0  0              0 V3000
M  V30 BEGIN CTAB
M  V30 COUNTS 32 35 0 0 0
M  V30 BEGIN ATOM
M  V30 1 Cl -0.866 0.9999 0.0 0
M  V30 2 C 0.0 1.4999 0.0 0
M  V30 3 C 0.866 0.9999 0.0 0
M  V30 4 C 0.0 2.4999 0.0 0
M  V30 5 C 1.732 1.5 0.0 0
M  V30 6 C 0.866 0.0 0.0 0
M  V30 7 C 0.866 3.0 0.0 0
M  V30 8 C 1.732 2.4999 0.0 0
M  V30 9 C 2.598 1.0 0.0 0
M  V30 10 O 1.732 -0.5 0.0 0
M  V30 11 C 0.0 -0.5 0.0 0
M  V30 12 F 3.098 1.866 0.0 0
M  V30 13 F 3.4641 0.5 0.0 0
M  V30 14 F 2.098 0.1339 0.0 0
M  V30 15 N -0.9135 -0.0932 0.0 0
M  V30 16 N -0.1045 -1.4945 0.0 0
M  V30 17 C -1.5826 -0.8364 0.0 0
M  V30 18 C -1.0826 -1.7024 0.0 0
M  V30 19 C 0.5646 -2.2376 0.0 0
M  V30 20 C -2.5771 -0.7318 0.0 0
M  V30 21 C -1.3916 -2.6534 0.0 0
M  V30 22 C 0.2555 -3.1887 0.0 0
M  V30 23 C -2.9839 0.1816 0.0 0
M  V30 24 C -3.1649 -1.5408 0.0 0
M  V30 25 C -0.7225 -3.3966 0.0 0
M  V30 26 F -2.3961 0.9906 0.0 0
M  V30 27 C -3.9784 0.2861 0.0 0
M  V30 28 C -4.1595 -1.4363 0.0 0
M  V30 29 C -4.5662 -0.5228 0.0 0
M  V30 30 C -5.5607 -0.4182 0.0 0
M  V30 31 O -5.9675 0.4952 0.0 0
M  V30 32 O -6.1485 -1.2273 0.0 0
M  V30 END ATOM
M  V30 BEGIN BOND
M  V30 1 1 1 2
M  V30 2 2 2 3
M  V30 3 1 2 4
M  V30 4 1 3 5
M  V30 5 1 3 6
M  V30 6 2 4 7
M  V30 7 2 5 8
M  V30 8 1 5 9
M  V30 9 2 6 10
M  V30 10 1 6 11
M  V30 11 1 9 12
M  V30 12 1 9 13
M  V30 13 1 9 14
M  V30 14 2 11 15
M  V30 15 1 11 16
M  V30 16 1 15 17
M  V30 17 1 16 18
M  V30 18 1 16 19
M  V30 19 1 17 20
M  V30 20 1 18 21
M  V30 21 2 19 22
M  V30 22 2 20 23
M  V30 23 1 20 24
M  V30 24 2 21 25
M  V30 25 1 23 26
M  V30 26 1 23 27
M  V30 27 2 24 28
M  V30 28 2 27 29
M  V30 29 1 29 30
M  V30 30 2 30 31
M  V30 31 1 30 32
M  V30 32 1 7 8
M  V30 33 2 17 18
M  V30 34 1 22 25
M  V30 35 1 28 29
M  V30 END BOND
M  V30 END CTAB
M  END
>  <Molecule ChEMBL ID>
CHEMBL3598149

>  <Smiles>
O=C(O)c1ccc(-c2nc(C(=O)c3c(Cl)cccc3C(F)(F)F)n3ccccc23)c(F)c1

>  <IC50_nM>
320

>  <Assay Description>
Displacement of fluormone PPARgamma green from GST-tagged human PPARgamma-LBD after 2 hrs by fluorescence polarization assay

$$$$
CHEMBL400132
Actelion Java MolfileCreator 2.0

  0  0  0  0  0  0              0 V3000
M  V30 BEGIN CTAB
M  V30 COUNTS 31 35 0 0 0
M  V30 BEGIN ATOM
M  V30 1 Cl 0.866 -2.0 0.0 0
M  V30 2 C 1.732 -1.5 0.0 0
M  V30 3 C 1.732 -0.5 0.0 0
M  V30 4 C 2.598 -1.9999 0.0 0
M  V30 5 O 0.866 0.0 0.0 0
M  V30 6 C 2.598 0.0 0.0 0
M  V30 7 C 3.4641 -1.4999 0.0 0
M  V30 8 C 2.598 -3.0 0.0 0
M  V30 9 C 0.0 -0.5 0.0 0
M  V30 10 C 2.598 1.0 0.0 0
M  V30 11 C 3.4641 -0.4999 0.0 0
M  V30 12 C 1.732 1.4999 0.0 0
M  V30 13 C 3.4641 1.5 0.0 0
M  V30 14 C 4.3301 0.0 0.0 0
M  V30 15 O 0.866 1.0 0.0 0
M  V30 16 C 1.732 2.5 0.0 0
M  V30 17 C 3.4641 2.5 0.0 0
M  V30 18 C 4.3301 1.0 0.0 0
M  V30 19 C 2.598 3.0 0.0 0
M  V30 20 C 0.866 2.9999 0.0 0
M  V30 21 O 4.3301 3.0 0.0 0
M  V30 22 O 5.1961 1.5 0.0 0
M  V30 23 C 2.598 4.0 0.0 0
M  V30 24 C 0.866 3.9999 0.0 0
M  V30 25 O 3.4641 4.5 0.0 0
M  V30 26 C 1.732 4.5 0.0 0
M  V30 27 C 0.1228 4.6691 0.0 0
M  V30 28 C 1.5241 5.4781 0.0 0 CFG=1
M  V30 29 O -0.8552 4.4612 0.0 0
M  V30 30 O 0.5296 5.5826 0.0 0
M  V30 31 C 2.1932 6.2212 0.0 0
M  V30 END ATOM
M  V30 BEGIN BOND
M  V30 1 1 1 2
M  V30 2 2 2 3
M  V30 3 1 2 4
M  V30 4 1 3 5
M  V30 5 1 3 6
M  V30 6 2 4 7
M  V30 7 1 4 8
M  V30 8 1 5 9
M  V30 9 2 6 10
M  V30 10 1 6 11
M  V30 11 1 10 12
M  V30 12 1 10 13
M  V30 13 2 11 14
M  V30 14 2 12 15
M  V30 15 1 12 16
M  V30 16 1 13 17
M  V30 17 2 13 18
M  V30 18 2 16 19
M  V30 19 1 16 20
M  V30 20 2 17 21
M  V30 21 1 18 22
M  V30 22 1 19 23
M  V30 23 2 20 24
M  V30 24 1 23 25
M  V30 25 2 23 26
M  V30 26 1 24 27
M  V30 27 1 26 28
M  V30 28 2 27 29
M  V30 29 1 27 30
M  V30 30 1 28 31 CFG=1
M  V30 31 1 7 11
M  V30 32 1 14 18
M  V30 33 1 17 19
M  V30 34 1 24 26
M  V30 35 1 28 30
M  V30 END BOND
M  V30 BEGIN COLLECTION
M  V30 MDLV30/STERAC1 ATOMS=(1 28)
M  V30 END COLLECTION
M  V30 END CTAB
M  END
>  <Molecule ChEMBL ID>
CHEMBL400132

>  <Smiles>
COc1c(Cl)c(C)cc2cc(O)c3c(c12)C(=O)c1cc2c(c(O)c1C3=O)C(C)OC2=O

>  <IC50_nM>
320

>  <Assay Description>
Antagonist activity at human PPARgamma receptor assessed as rosiglitazone-induced receptor activation by alphascreen assay

$$$$
CHEMBL606425
Actelion Java MolfileCreator 2.0

  0  0  0  0  0  0              0 V3000
M  V30 BEGIN CTAB
M  V30 COUNTS 38 42 0 0 0
M  V30 BEGIN ATOM
M  V30 1 O 3.6545 8.3038 0.0 0
M  V30 2 C 4.3237 7.5607 0.0 0
M  V30 3 O 4.0147 6.6096 0.0 0
M  V30 4 C 5.3018 7.7686 0.0 0
M  V30 5 C 5.971 7.0255 0.0 0
M  V30 6 C 5.6108 8.7197 0.0 0
M  V30 7 C 5.6619 6.0744 0.0 0
M  V30 8 C 6.9491 7.2334 0.0 0
M  V30 9 C 6.589 8.9276 0.0 0
M  V30 10 C 4.6838 5.8665 0.0 0
M  V30 11 C 6.3311 5.3313 0.0 0
M  V30 12 C 7.2581 8.1844 0.0 0
M  V30 13 C 4.3748 4.9154 0.0 0
M  V30 14 C 6.022 4.3802 0.0 0
M  V30 15 C 5.0439 4.1723 0.0 0
M  V30 16 C 4.7349 3.2212 0.0 0
M  V30 17 N 5.404 2.4781 0.0 0
M  V30 18 C 5.1961 1.4999 0.0 0
M  V30 19 C 6.3985 2.5826 0.0 0
M  V30 20 C 6.0621 1.0 0.0 0
M  V30 21 C 4.3301 0.9999 0.0 0
M  V30 22 C 6.8053 1.6691 0.0 0
M  V30 23 C 6.8985 3.4487 0.0 0
M  V30 24 C 6.0621 0.0 0.0 0
M  V30 25 C 4.3301 0.0 0.0 0
M  V30 26 C 5.1961 -0.5 0.0 0
M  V30 27 C 3.4641 -0.5 0.0 0
M  V30 28 O 3.4641 -1.5 0.0 0
M  V30 29 N 2.598 0.0 0.0 0
M  V30 30 C 1.732 -0.5 0.0 0 CFG=2
M  V30 31 C 1.732 -1.5 0.0 0
M  V30 32 C 0.866 0.0 0.0 0
M  V30 33 C 0.866 -1.9999 0.0 0
M  V30 34 C 2.598 -2.0 0.0 0
M  V30 35 C 0.0 -0.5 0.0 0
M  V30 36 C 0.866 -2.9999 0.0 0
M  V30 37 C 2.598 -3.0 0.0 0
M  V30 38 C 1.732 -3.5 0.0 0
M  V30 END ATOM
M  V30 BEGIN BOND
M  V30 1 2 1 2
M  V30 2 1 2 3
M  V30 3 1 2 4
M  V30 4 2 4 5
M  V30 5 1 4 6
M  V30 6 1 5 7
M  V30 7 1 5 8
M  V30 8 2 6 9
M  V30 9 2 7 10
M  V30 10 1 7 11
M  V30 11 2 8 12
M  V30 12 1 10 13
M  V30 13 2 11 14
M  V30 14 2 13 15
M  V30 15 1 15 16
M  V30 16 1 16 17
M  V30 17 1 17 18
M  V30 18 1 17 19
M  V30 19 2 18 20
M  V30 20 1 18 21
M  V30 21 2 19 22
M  V30 22 1 19 23
M  V30 23 1 20 24
M  V30 24 2 21 25
M  V30 25 2 24 26
M  V30 26 1 25 27
M  V30 27 2 27 28
M  V30 28 1 27 29
M  V30 29 1 30 29 CFG=3
M  V30 30 1 30 31
M  V30 31 1 30 32
M  V30 32 2 31 33
M  V30 33 1 31 34
M  V30 34 1 32 35
M  V30 35 1 33 36
M  V30 36 2 34 37
M  V30 37 2 36 38
M  V30 38 1 9 12
M  V30 39 1 14 15
M  V30 40 1 20 22
M  V30 41 1 25 26
M  V30 42 1 37 38
M  V30 END BOND
M  V30 BEGIN COLLECTION
M  V30 MDLV30/STERAC1 ATOMS=(1 30)
M  V30 END COLLECTION
M  V30 END CTAB
M  END
>  <Molecule ChEMBL ID>
CHEMBL606425

>  <Smiles>
CCC(NC(=O)c1ccc2cc(C)n(Cc3ccc(-c4ccccc4C(=O)O)cc3)c2c1)c1ccccc1

>  <IC50_nM>
321

>  <Assay Description>
Displacement of radiolabeled ((5-{4-[Methyl-pyridin-2yl-amino)-ethoxy]-benzyl}-thiazolidine-2,4-dione) from human PPARgamma ligand binding domain expressed in Escherichia coli

$$$$
CHEMBL213675
Actelion Java MolfileCreator 2.0

  0  0  0  0  0  0              0 V3000
M  V30 BEGIN CTAB
M  V30 COUNTS 34 37 0 0 0
M  V30 BEGIN ATOM
M  V30 1 F 13.9704 1.5854 0.0 0
M  V30 2 C 13.5637 0.6719 0.0 0
M  V30 3 F 14.4772 0.2651 0.0 0
M  V30 4 F 13.157 -0.2416 0.0 0
M  V30 5 C 12.6502 1.0786 0.0 0
M  V30 6 C 12.5456 2.0731 0.0 0
M  V30 7 C 11.8411 0.4908 0.0 0
M  V30 8 C 11.6321 2.4799 0.0 0
M  V30 9 C 10.9276 0.8975 0.0 0
M  V30 10 C 10.8231 1.8921 0.0 0
M  V30 11 C 9.9095 2.2988 0.0 0
M  V30 12 O 9.7016 3.277 0.0 0
M  V30 13 N 9.0435 1.7988 0.0 0
M  V30 14 C 8.7071 3.3815 0.0 0
M  V30 15 C 8.3003 2.4679 0.0 0
M  V30 16 C 8.2071 4.2475 0.0 0
M  V30 17 C 7.3222 2.26 0.0 0
M  V30 18 N 7.0132 1.309 0.0 0
M  V30 19 C 6.0621 0.9999 0.0 0
M  V30 20 C 7.601 0.5 0.0 0
M  V30 21 C 6.0621 0.0 0.0 0
M  V30 22 C 5.1961 1.4999 0.0 0
M  V30 23 C 7.0132 -0.309 0.0 0
M  V30 24 C 5.1961 -0.5 0.0 0
M  V30 25 C 4.3301 0.9999 0.0 0
M  V30 26 C 4.3301 0.0 0.0 0
M  V30 27 C 3.4641 -0.5 0.0 0
M  V30 28 C 2.598 0.0 0.0 0 CFG=2
M  V30 29 O 1.732 -0.5 0.0 0
M  V30 30 C 2.598 1.0 0.0 0
M  V30 31 C 0.866 0.0 0.0 0
M  V30 32 O 3.4641 1.4999 0.0 0
M  V30 33 O 1.732 1.5 0.0 0
M  V30 34 C 0.0 -0.5 0.0 0
M  V30 END ATOM
M  V30 BEGIN BOND
M  V30 1 1 1 2
M  V30 2 1 2 3
M  V30 3 1 2 4
M  V30 4 1 2 5
M  V30 5 2 5 6
M  V30 6 1 5 7
M  V30 7 1 6 8
M  V30 8 2 7 9
M  V30 9 2 8 10
M  V30 10 1 10 11
M  V30 11 1 11 12
M  V30 12 2 11 13
M  V30 13 1 12 14
M  V30 14 1 13 15
M  V30 15 1 14 16
M  V30 16 1 15 17
M  V30 17 1 17 18
M  V30 18 1 18 19
M  V30 19 1 18 20
M  V30 20 2 19 21
M  V30 21 1 19 22
M  V30 22 2 20 23
M  V30 23 1 21 24
M  V30 24 2 22 25
M  V30 25 2 24 26
M  V30 26 1 26 27
M  V30 27 1 27 28
M  V30 28 1 28 29 CFG=3
M  V30 29 1 28 30
M  V30 30 1 29 31
M  V30 31 2 30 32
M  V30 32 1 30 33
M  V30 33 1 31 34
M  V30 34 1 9 10
M  V30 35 2 14 15
M  V30 36 1 21 23
M  V30 37 1 25 26
M  V30 END BOND
M  V30 BEGIN COLLECTION
M  V30 MDLV30/STERAC1 ATOMS=(1 28)
M  V30 END COLLECTION
M  V30 END CTAB
M  END
>  <Molecule ChEMBL ID>
CHEMBL213675

>  <Smiles>
CCOC(Cc1ccc2c(ccn2Cc2nc(-c3ccc(C(F)(F)F)cc3)oc2C)c1)C(=O)O

>  <IC50_nM>
321

>  <Assay Description>
Binding affinity to PPARgamma by radio ligand binding assay

$$$$
CHEMBL3678120
Actelion Java MolfileCreator 2.0

  0  0  0  0  0  0              0 V3000
M  V30 BEGIN CTAB
M  V30 COUNTS 40 43 0 0 0
M  V30 BEGIN ATOM
M  V30 1 O 17.168 -0.319 0.0 0
M  V30 2 C 16.1643 0.7957 0.0 0
M  V30 3 N 16.6278 2.2222 0.0 0
M  V30 4 C 14.697 0.4838 0.0 0
M  V30 5 C 15.6241 3.337 0.0 0 CFG=2
M  V30 6 C 14.2335 -0.9427 0.0 0
M  V30 7 C 13.6933 1.5985 0.0 0
M  V30 8 C 16.0876 4.7635 0.0 0
M  V30 9 C 14.1569 3.0251 0.0 0
M  V30 10 C 12.7663 -1.2546 0.0 0
M  V30 11 C 12.2261 1.2866 0.0 0
M  V30 12 C 17.5548 5.0754 0.0 0
M  V30 13 C 15.0839 5.8783 0.0 0
M  V30 14 C 11.7626 -0.1398 0.0 0
M  V30 15 C 12.0163 -2.5536 0.0 0
M  V30 16 C 18.0184 6.502 0.0 0
M  V30 17 C 15.5474 7.3049 0.0 0
M  V30 18 N 10.3923 -0.75 0.0 0
M  V30 19 C 10.5491 -2.2417 0.0 0
M  V30 20 C 12.6264 -3.9239 0.0 0
M  V30 21 C 17.0147 7.6167 0.0 0
M  V30 22 C 9.0932 0.0 0.0 0
M  V30 23 C 9.4343 -3.2454 0.0 0
M  V30 24 C 17.4782 9.0433 0.0 0
M  V30 25 C 7.7942 -0.75 0.0 0
M  V30 26 C 16.0516 9.5068 0.0 0
M  V30 27 C 17.9417 10.4699 0.0 0
M  V30 28 C 18.9048 8.5798 0.0 0
M  V30 29 C 6.4951 0.0 0.0 0
M  V30 30 C 7.7942 -2.25 0.0 0
M  V30 31 C 5.1961 -0.75 0.0 0
M  V30 32 C 6.4951 -3.0 0.0 0
M  V30 33 O 3.8971 0.0 0.0 0
M  V30 34 C 5.1961 -2.25 0.0 0
M  V30 35 C 2.598 -0.75 0.0 0
M  V30 36 C 1.299 0.0 0.0 0
M  V30 37 C 1.848 -2.049 0.0 0
M  V30 38 C 3.348 -2.049 0.0 0
M  V30 39 O 1.299 1.5 0.0 0
M  V30 40 O 0.0 -0.75 0.0 0
M  V30 END ATOM
M  V30 BEGIN BOND
M  V30 1 2 1 2
M  V30 2 1 2 3
M  V30 3 1 2 4
M  V30 4 1 3 5
M  V30 5 2 4 6
M  V30 6 1 4 7
M  V30 7 1 5 8
M  V30 8 1 5 9 CFG=1
M  V30 9 1 6 10
M  V30 10 2 7 11
M  V30 11 2 8 12
M  V30 12 1 8 13
M  V30 13 2 10 14
M  V30 14 1 10 15
M  V30 15 1 12 16
M  V30 16 2 13 17
M  V30 17 1 14 18
M  V30 18 2 15 19
M  V30 19 1 15 20
M  V30 20 2 16 21
M  V30 21 1 18 22
M  V30 22 1 19 23
M  V30 23 1 21 24
M  V30 24 1 22 25
M  V30 25 1 24 26
M  V30 26 1 24 27
M  V30 27 1 24 28
M  V30 28 2 25 29
M  V30 29 1 25 30
M  V30 30 1 29 31
M  V30 31 2 30 32
M  V30 32 1 31 33
M  V30 33 2 31 34
M  V30 34 1 33 35
M  V30 35 1 35 36
M  V30 36 1 35 37
M  V30 37 1 35 38
M  V30 38 2 36 39
M  V30 39 1 36 40
M  V30 40 1 11 14
M  V30 41 1 17 21
M  V30 42 1 18 19
M  V30 43 1 32 34
M  V30 END BOND
M  V30 BEGIN COLLECTION
M  V30 MDLV30/STEABS ATOMS=(1 5)
M  V30 END COLLECTION
M  V30 END CTAB
M  END
>  <Molecule ChEMBL ID>
CHEMBL3678120

>  <Smiles>
Cc1c(C)n(Cc2cccc(OC(C)(C)C(=O)O)c2)c2ccc(C(=O)N[C@@H](C)c3ccc(C(C)(C)C)cc3)cc12

>  <IC50_nM>
321

>  <Assay Description>
Lanthascreen Competitive Binding Assay: The assay was performed according to manufacturer protocol. A mixture of 5 nM GST-PPARG-LBD, 5 nM Tb-GST-antibody, 5 nM Fluormone Pan- PPAR Green, and serial dilutions of the experimental compound, beginning at 10 ׬� downwards, was added to wells of black 384-well low- volume plates (Greiner) to a total volume of 18 xL. All dilutions were made in TR-FRET assay buffer C. DMSO at 2% final concentration was used as a no-ligand control. Experiment was performed in triplicate, and incubated for 2 hours in the dark prior to assay read in Perkin Elmer ViewLux ultra HTS microplate reader. FRET signal was measured by excitation at 340 nm and emission at 520 nm for fluorescein and 490 nm for terbium.

$$$$
CHEMBL4555317
Actelion Java MolfileCreator 2.0

  0  0  0  0  0  0              0 V3000
M  V30 BEGIN CTAB
M  V30 COUNTS 34 37 0 0 0
M  V30 BEGIN ATOM
M  V30 1 O 11.2583 -3.0 0.0 0
M  V30 2 C 10.3923 -3.5 0.0 0
M  V30 3 O 9.5262 -3.0 0.0 0
M  V30 4 C 10.3923 -4.5 0.0 0
M  V30 5 C 9.5262 -5.0 0.0 0
M  V30 6 C 11.2583 -5.0 0.0 0
M  V30 7 C 8.6602 -4.5 0.0 0
M  V30 8 C 9.5262 -6.0 0.0 0
M  V30 9 C 11.2583 -6.0 0.0 0
M  V30 10 C 8.6602 -3.5 0.0 0
M  V30 11 C 7.7942 -5.0 0.0 0
M  V30 12 C 10.3923 -6.5 0.0 0
M  V30 13 C 7.7942 -3.0 0.0 0
M  V30 14 C 6.9282 -4.5 0.0 0
M  V30 15 C 6.9282 -3.5 0.0 0
M  V30 16 C 6.0621 -3.0 0.0 0
M  V30 17 N 6.0621 -1.9999 0.0 0
M  V30 18 C 5.1961 -1.4999 0.0 0
M  V30 19 C 5.1961 -0.5 0.0 0
M  V30 20 C 4.3301 -1.9999 0.0 0
M  V30 21 C 4.3301 0.0 0.0 0
M  V30 22 C 3.4641 -1.5 0.0 0
M  V30 23 C 3.4641 -0.5 0.0 0
M  V30 24 C 2.598 0.0 0.0 0
M  V30 25 O 2.598 1.0 0.0 0
M  V30 26 N 1.732 -0.5 0.0 0
M  V30 27 C 0.866 0.0 0.0 0
M  V30 28 C 0.0 -0.5 0.0 0
M  V30 29 C -0.866 0.0 0.0 0
M  V30 30 C 0.0 -1.4999 0.0 0
M  V30 31 C -1.732 -0.4999 0.0 0
M  V30 32 C -0.866 -1.9999 0.0 0
M  V30 33 O -2.598 0.0 0.0 0
M  V30 34 C -1.732 -1.4999 0.0 0
M  V30 END ATOM
M  V30 BEGIN BOND
M  V30 1 2 1 2
M  V30 2 1 2 3
M  V30 3 1 2 4
M  V30 4 2 4 5
M  V30 5 1 4 6
M  V30 6 1 5 7
M  V30 7 1 5 8
M  V30 8 2 6 9
M  V30 9 2 7 10
M  V30 10 1 7 11
M  V30 11 2 8 12
M  V30 12 1 10 13
M  V30 13 2 11 14
M  V30 14 2 13 15
M  V30 15 1 15 16
M  V30 16 1 16 17
M  V30 17 1 17 18
M  V30 18 2 18 19
M  V30 19 1 18 20
M  V30 20 1 19 21
M  V30 21 2 20 22
M  V30 22 2 21 23
M  V30 23 1 23 24
M  V30 24 2 24 25
M  V30 25 1 24 26
M  V30 26 1 26 27
M  V30 27 1 27 28
M  V30 28 2 28 29
M  V30 29 1 28 30
M  V30 30 1 29 31
M  V30 31 2 30 32
M  V30 32 1 31 33
M  V30 33 2 31 34
M  V30 34 1 9 12
M  V30 35 1 14 15
M  V30 36 1 22 23
M  V30 37 1 32 34
M  V30 END BOND
M  V30 END CTAB
M  END
>  <Molecule ChEMBL ID>
CHEMBL4555317

>  <Smiles>
O=C(NCc1cccc(O)c1)c1ccc(NCc2ccc(-c3ccccc3C(=O)O)cc2)cc1

>  <IC50_nM>
325

>  <Assay Description>
Displacement of fluormone PPAR green tracer ligand from recombinant GST-tagged PPARgamma ligand binding domain (unknown origin) incubated for 4 hrs by competitive fluorescence polarization binding assay

$$$$
CHEMBL605088
Actelion Java MolfileCreator 2.0

  0  0  0  0  0  0              0 V3000
M  V30 BEGIN CTAB
M  V30 COUNTS 31 34 0 0 0
M  V30 BEGIN ATOM
M  V30 1 O 6.9282 -4.5 0.0 0
M  V30 2 C 6.9282 -3.5 0.0 0
M  V30 3 O 7.7942 -3.0 0.0 0
M  V30 4 C 6.0621 -3.0 0.0 0 CFG=1
M  V30 5 N 5.1961 -3.5 0.0 0
M  V30 6 C 6.0621 -1.9999 0.0 0
M  V30 7 N 4.2826 -3.0932 0.0 0
M  V30 8 C 5.0916 -4.4945 0.0 0
M  V30 9 C 5.1961 -1.4999 0.0 0
M  V30 10 C 3.6134 -3.8364 0.0 0
M  V30 11 C 4.1134 -4.7024 0.0 0
M  V30 12 C 5.1961 -0.5 0.0 0
M  V30 13 C 4.3301 -1.9999 0.0 0
M  V30 14 C 4.3301 0.0 0.0 0
M  V30 15 C 3.4641 -1.5 0.0 0
M  V30 16 C 3.4641 -0.5 0.0 0
M  V30 17 C 2.598 0.0 0.0 0
M  V30 18 C 1.732 -0.5 0.0 0
M  V30 19 C 0.866 0.0 0.0 0
M  V30 20 C 0.0 -0.5 0.0 0
M  V30 21 N -0.9135 -0.0932 0.0 0
M  V30 22 C -0.1045 -1.4945 0.0 0
M  V30 23 C -1.5826 -0.8364 0.0 0
M  V30 24 O -1.0826 -1.7024 0.0 0
M  V30 25 C 0.6386 -2.1636 0.0 0
M  V30 26 C -2.5771 -0.7318 0.0 0
M  V30 27 C -2.9839 0.1816 0.0 0
M  V30 28 C -3.1649 -1.5408 0.0 0
M  V30 29 C -3.9784 0.2861 0.0 0
M  V30 30 C -4.1595 -1.4363 0.0 0
M  V30 31 C -4.5662 -0.5228 0.0 0
M  V30 END ATOM
M  V30 BEGIN BOND
M  V30 1 2 1 2
M  V30 2 1 2 3
M  V30 3 1 2 4
M  V30 4 1 4 5 CFG=1
M  V30 5 1 4 6
M  V30 6 1 5 7
M  V30 7 1 5 8
M  V30 8 1 6 9
M  V30 9 2 7 10
M  V30 10 2 8 11
M  V30 11 2 9 12
M  V30 12 1 9 13
M  V30 13 1 12 14
M  V30 14 2 13 15
M  V30 15 2 14 16
M  V30 16 1 16 17
M  V30 17 1 17 18
M  V30 18 1 18 19
M  V30 19 1 19 20
M  V30 20 1 20 21
M  V30 21 2 20 22
M  V30 22 2 21 23
M  V30 23 1 22 24
M  V30 24 1 22 25
M  V30 25 1 23 26
M  V30 26 2 26 27
M  V30 27 1 26 28
M  V30 28 1 27 29
M  V30 29 2 28 30
M  V30 30 2 29 31
M  V30 31 1 10 11
M  V30 32 1 15 16
M  V30 33 1 23 24
M  V30 34 1 30 31
M  V30 END BOND
M  V30 BEGIN COLLECTION
M  V30 MDLV30/STERAC1 ATOMS=(1 4)
M  V30 END COLLECTION
M  V30 END CTAB
M  END
>  <Molecule ChEMBL ID>
CHEMBL605088

>  <Smiles>
Cc1oc(-c2ccccc2)nc1CCCc1ccc(CC(C(=O)O)n2cccn2)cc1

>  <IC50_nM>
327

>  <Assay Description>
Displacement of [3H2]nTZD3 from GST-tagged human PPARgamma expressed in Escherichia coli by SPA

$$$$
CHEMBL2024606
Actelion Java MolfileCreator 2.0

  0  0  0  0  0  0              0 V3000
M  V30 BEGIN CTAB
M  V30 COUNTS 36 37 0 0 0
M  V30 BEGIN ATOM
M  V30 1 Cl 14.2894 4.5 0.0 0
M  V30 2 C 15.5884 3.75 0.0 0
M  V30 3 C 15.5884 2.25 0.0 0
M  V30 4 C 16.8875 4.5 0.0 0
M  V30 5 O 14.2894 1.5 0.0 0
M  V30 6 N 16.8875 1.5 0.0 0
M  V30 7 C 18.1865 3.75 0.0 0
M  V30 8 C 14.2894 0.0 0.0 0
M  V30 9 C 18.1865 2.25 0.0 0
M  V30 10 C 19.4855 4.5 0.0 0
M  V30 11 C 12.9903 -0.75 0.0 0
M  V30 12 C 15.5884 -0.75 0.0 0
M  V30 13 F 18.7355 5.799 0.0 0
M  V30 14 F 20.7846 5.25 0.0 0
M  V30 15 F 20.2355 3.2009 0.0 0
M  V30 16 C 12.9903 -2.25 0.0 0
M  V30 17 C 11.6913 0.0 0.0 0
M  V30 18 C 15.5884 -2.25 0.0 0
M  V30 19 C 14.2894 -3.0 0.0 0
M  V30 20 C 10.3923 -0.75 0.0 0
M  V30 21 O 16.8875 -3.0 0.0 0
M  V30 22 C 9.0932 0.0 0.0 0
M  V30 23 C 16.8875 -4.5 0.0 0
M  V30 24 O 9.0932 1.5 0.0 0
M  V30 25 N 7.7942 -0.75 0.0 0
M  V30 26 C 18.1865 -5.25 0.0 0
M  V30 27 S 6.4951 0.0 0.0 0
M  V30 28 O 18.1865 -6.75 0.0 0
M  V30 29 O 7.2451 1.299 0.0 0
M  V30 30 O 5.7451 1.299 0.0 0
M  V30 31 C 5.1961 -0.75 0.0 0
M  V30 32 C 19.4855 -7.5 0.0 0
M  V30 33 C 3.8971 0.0 0.0 0
M  V30 34 C 2.598 -0.75 0.0 0
M  V30 35 C 1.299 0.0 0.0 0
M  V30 36 C 0.0 -0.75 0.0 0
M  V30 END ATOM
M  V30 BEGIN BOND
M  V30 1 1 1 2
M  V30 2 2 2 3
M  V30 3 1 2 4
M  V30 4 1 3 5
M  V30 5 1 3 6
M  V30 6 2 4 7
M  V30 7 1 5 8
M  V30 8 2 6 9
M  V30 9 1 7 10
M  V30 10 2 8 11
M  V30 11 1 8 12
M  V30 12 1 10 13
M  V30 13 1 10 14
M  V30 14 1 10 15
M  V30 15 1 11 16
M  V30 16 1 11 17
M  V30 17 2 12 18
M  V30 18 2 16 19
M  V30 19 2 17 20
M  V30 20 1 18 21
M  V30 21 1 20 22
M  V30 22 1 21 23
M  V30 23 2 22 24
M  V30 24 1 22 25
M  V30 25 1 23 26
M  V30 26 1 25 27
M  V30 27 1 26 28
M  V30 28 2 27 29
M  V30 29 2 27 30
M  V30 30 1 27 31
M  V30 31 1 28 32
M  V30 32 1 31 33
M  V30 33 1 33 34
M  V30 34 1 34 35
M  V30 35 1 35 36
M  V30 36 1 7 9
M  V30 37 1 18 19
M  V30 END BOND
M  V30 END CTAB
M  END
>  <Molecule ChEMBL ID>
CHEMBL2024606

>  <Smiles>
CCCCCS(=O)(=O)NC(=O)/C=C/c1ccc(OCCOC)cc1Oc1ncc(C(F)(F)F)cc1Cl

>  <IC50_nM>
330

>  <Assay Description>
Displacement of [3H]-AD-5061 from human GST-tagged PPARgamma

$$$$
CHEMBL218841
Actelion Java MolfileCreator 2.0

  0  0  0  0  0  0              0 V3000
M  V30 BEGIN CTAB
M  V30 COUNTS 36 39 0 0 0
M  V30 BEGIN ATOM
M  V30 1 S 3.8971 0.0 0.0 0
M  V30 2 O 4.6471 1.299 0.0 0
M  V30 3 O 3.1471 1.299 0.0 0
M  V30 4 N 2.598 -0.75 0.0 0
M  V30 5 C 5.1961 -0.75 0.0 0
M  V30 6 C 1.299 0.0 0.0 0
M  V30 7 C 5.1961 -2.25 0.0 0
M  V30 8 C 6.4951 0.0 0.0 0
M  V30 9 O 1.299 1.5 0.0 0
M  V30 10 C 0.0 -0.75 0.0 0
M  V30 11 C 6.4951 -3.0 0.0 0
M  V30 12 C 7.7942 -0.75 0.0 0
M  V30 13 N -1.3703 -0.1398 0.0 0
M  V30 14 C -0.1567 -2.2417 0.0 0
M  V30 15 C 7.7942 -2.25 0.0 0
M  V30 16 C 6.4951 -4.5 0.0 0
M  V30 17 C -2.374 -1.2546 0.0 0
M  V30 18 C -1.6821 1.3273 0.0 0
M  V30 19 C -1.624 -2.5536 0.0 0
M  V30 20 F 7.9951 -4.5 0.0 0
M  V30 21 F 6.4951 -6.0 0.0 0
M  V30 22 F 4.9951 -4.5 0.0 0
M  V30 23 C -3.874 -1.2546 0.0 0
M  V30 24 C -3.1087 1.7908 0.0 0
M  V30 25 C -2.374 -3.8526 0.0 0
M  V30 26 C -4.624 -2.5536 0.0 0
M  V30 27 C -3.4206 3.258 0.0 0
M  V30 28 C -4.2234 0.7871 0.0 0
M  V30 29 C -3.874 -3.8526 0.0 0
M  V30 30 C -4.8472 3.7216 0.0 0
M  V30 31 C -5.65 1.2506 0.0 0
M  V30 32 C -5.9619 2.7179 0.0 0
M  V30 33 C -7.3885 3.1814 0.0 0
M  V30 34 C -7.852 1.7548 0.0 0
M  V30 35 C -8.8151 3.6449 0.0 0
M  V30 36 C -6.925 4.608 0.0 0
M  V30 END ATOM
M  V30 BEGIN BOND
M  V30 1 2 1 2
M  V30 2 2 1 3
M  V30 3 1 1 4
M  V30 4 1 1 5
M  V30 5 1 4 6
M  V30 6 2 5 7
M  V30 7 1 5 8
M  V30 8 2 6 9
M  V30 9 1 6 10
M  V30 10 1 7 11
M  V30 11 2 8 12
M  V30 12 1 10 13
M  V30 13 2 10 14
M  V30 14 2 11 15
M  V30 15 1 11 16
M  V30 16 1 13 17
M  V30 17 1 13 18
M  V30 18 1 14 19
M  V30 19 1 16 20
M  V30 20 1 16 21
M  V30 21 1 16 22
M  V30 22 1 17 23
M  V30 23 1 18 24
M  V30 24 1 19 25
M  V30 25 2 23 26
M  V30 26 2 24 27
M  V30 27 1 24 28
M  V30 28 2 25 29
M  V30 29 1 27 30
M  V30 30 2 28 31
M  V30 31 2 30 32
M  V30 32 1 32 33
M  V30 33 1 33 34
M  V30 34 1 33 35
M  V30 35 1 33 36
M  V30 36 1 12 15
M  V30 37 2 17 19
M  V30 38 1 26 29
M  V30 39 1 31 32
M  V30 END BOND
M  V30 END CTAB
M  END
>  <Molecule ChEMBL ID>
CHEMBL218841

>  <Smiles>
CC(C)(C)c1ccc(Cn2c(C(=O)NS(=O)(=O)c3cccc(C(F)(F)F)c3)cc3ccccc32)cc1

>  <IC50_nM>
330

>  <Assay Description>
Displacement of Fluormone from PPAR gamma

$$$$
CHEMBL97529
Actelion Java MolfileCreator 2.0

  0  0  0  0  0  0              0 V3000
M  V30 BEGIN CTAB
M  V30 COUNTS 39 43 0 0 0
M  V30 BEGIN ATOM
M  V30 1 S 8.7077 -0.4067 0.0 0
M  V30 2 C 9.3769 0.3364 0.0 0
M  V30 3 C 7.7942 0.0 0.0 0 CFG=2
M  V30 4 O 10.3714 0.2318 0.0 0
M  V30 5 N 8.8769 1.2024 0.0 0
M  V30 6 C 6.9282 -0.5 0.0 0
M  V30 7 C 7.8987 0.9945 0.0 0
M  V30 8 C 6.0621 0.0 0.0 0
M  V30 9 C 6.9282 -1.5 0.0 0
M  V30 10 O 7.1556 1.6636 0.0 0
M  V30 11 C 5.1961 -0.5 0.0 0
M  V30 12 C 6.0621 -2.0 0.0 0
M  V30 13 O 4.3301 0.0 0.0 0
M  V30 14 C 5.1961 -1.5 0.0 0
M  V30 15 C 3.4641 -0.5 0.0 0
M  V30 16 C 2.598 0.0 0.0 0
M  V30 17 C 1.732 -0.5 0.0 0
M  V30 18 O 0.866 0.0 0.0 0
M  V30 19 C 0.0 -0.5 0.0 0
M  V30 20 C -0.866 0.0 0.0 0
M  V30 21 C 0.0 -1.4999 0.0 0
M  V30 22 C -1.732 -0.4999 0.0 0
M  V30 23 C -0.866 1.0 0.0 0
M  V30 24 C -0.866 -1.9999 0.0 0
M  V30 25 C -1.732 -1.4999 0.0 0
M  V30 26 C 0.0 1.5 0.0 0
M  V30 27 O -2.598 -1.9999 0.0 0
M  V30 28 C 0.0 2.5 0.0 0
M  V30 29 C -2.598 -2.9999 0.0 0
M  V30 30 C -3.4641 -3.4999 0.0 0
M  V30 31 C -1.732 -3.4999 0.0 0
M  V30 32 C -3.4641 -4.4999 0.0 0
M  V30 33 C -1.732 -4.4999 0.0 0
M  V30 34 C -2.598 -4.9999 0.0 0
M  V30 35 C -2.598 -5.9999 0.0 0
M  V30 36 C -3.407 -6.5877 0.0 0
M  V30 37 C -1.789 -6.5877 0.0 0
M  V30 38 C -3.098 -7.5388 0.0 0
M  V30 39 C -2.098 -7.5388 0.0 0
M  V30 END ATOM
M  V30 BEGIN BOND
M  V30 1 1 1 2
M  V30 2 1 1 3
M  V30 3 2 2 4
M  V30 4 1 2 5
M  V30 5 1 3 6 CFG=3
M  V30 6 1 3 7
M  V30 7 2 6 8
M  V30 8 1 6 9
M  V30 9 2 7 10
M  V30 10 1 8 11
M  V30 11 2 9 12
M  V30 12 1 11 13
M  V30 13 2 11 14
M  V30 14 1 13 15
M  V30 15 1 15 16
M  V30 16 1 16 17
M  V30 17 1 17 18
M  V30 18 1 18 19
M  V30 19 2 19 20
M  V30 20 1 19 21
M  V30 21 1 20 22
M  V30 22 1 20 23
M  V30 23 2 21 24
M  V30 24 2 22 25
M  V30 25 1 23 26
M  V30 26 1 25 27
M  V30 27 1 26 28
M  V30 28 1 27 29
M  V30 29 2 29 30
M  V30 30 1 29 31
M  V30 31 1 30 32
M  V30 32 2 31 33
M  V30 33 2 32 34
M  V30 34 1 34 35
M  V30 35 1 35 36
M  V30 36 1 35 37
M  V30 37 1 36 38
M  V30 38 1 37 39
M  V30 39 1 5 7
M  V30 40 1 12 14
M  V30 41 1 24 25
M  V30 42 1 33 34
M  V30 43 1 38 39
M  V30 END BOND
M  V30 BEGIN COLLECTION
M  V30 MDLV30/STERAC1 ATOMS=(1 3)
M  V30 END COLLECTION
M  V30 END CTAB
M  END
>  <Molecule ChEMBL ID>
CHEMBL97529

>  <Smiles>
CCCc1cc(Oc2ccc(C3CCCC3)cc2)ccc1OCCCOc1cccc(C2SC(=O)NC2=O)c1

>  <IC50_nM>
330

>  <Assay Description>
In vitro binding affinity against human peroxisome proliferator activated receptor gamma

$$$$
CHEMBL218230
Actelion Java MolfileCreator 2.0

  0  0  0  0  0  0              0 V3000
M  V30 BEGIN CTAB
M  V30 COUNTS 37 40 0 0 0
M  V30 BEGIN ATOM
M  V30 1 Cl 9.8201 -5.1517 0.0 0
M  V30 2 C 9.0701 -3.8526 0.0 0
M  V30 3 C 7.5701 -3.8526 0.0 0
M  V30 4 C 9.8201 -2.5536 0.0 0
M  V30 5 C 6.8201 -2.5536 0.0 0
M  V30 6 C 9.0701 -1.2546 0.0 0
M  V30 7 C 7.5701 -1.2546 0.0 0
M  V30 8 C 5.3529 -2.2417 0.0 0
M  V30 9 N 6.5664 -0.1398 0.0 0
M  V30 10 C 5.1961 -0.75 0.0 0
M  V30 11 C 6.8783 1.3273 0.0 0
M  V30 12 C 3.8971 0.0 0.0 0
M  V30 13 C 8.3049 1.7908 0.0 0
M  V30 14 O 2.598 -0.75 0.0 0
M  V30 15 N 3.8971 1.5 0.0 0
M  V30 16 C 8.6167 3.258 0.0 0
M  V30 17 C 9.4196 0.7871 0.0 0
M  V30 18 S 2.598 2.25 0.0 0
M  V30 19 C 10.0433 3.7216 0.0 0
M  V30 20 C 10.8462 1.2506 0.0 0
M  V30 21 O 1.8481 0.9509 0.0 0
M  V30 22 O 1.0981 2.25 0.0 0
M  V30 23 C 2.598 3.75 0.0 0
M  V30 24 C 11.1581 2.7179 0.0 0
M  V30 25 C 10.3552 5.1888 0.0 0
M  V30 26 C 1.299 4.5 0.0 0
M  V30 27 C 3.8971 4.5 0.0 0
M  V30 28 F 11.8224 4.8769 0.0 0
M  V30 29 F 10.6671 6.656 0.0 0
M  V30 30 F 8.888 5.5006 0.0 0
M  V30 31 C 1.299 6.0 0.0 0
M  V30 32 C 3.8971 6.0 0.0 0
M  V30 33 C 2.598 6.75 0.0 0
M  V30 34 C 0.0 6.75 0.0 0
M  V30 35 F 0.75 8.049 0.0 0
M  V30 36 F -1.299 7.5 0.0 0
M  V30 37 F -0.75 5.4509 0.0 0
M  V30 END ATOM
M  V30 BEGIN BOND
M  V30 1 1 1 2
M  V30 2 2 2 3
M  V30 3 1 2 4
M  V30 4 1 3 5
M  V30 5 2 4 6
M  V30 6 2 5 7
M  V30 7 1 5 8
M  V30 8 1 7 9
M  V30 9 2 8 10
M  V30 10 1 9 11
M  V30 11 1 10 12
M  V30 12 1 11 13
M  V30 13 2 12 14
M  V30 14 1 12 15
M  V30 15 2 13 16
M  V30 16 1 13 17
M  V30 17 1 15 18
M  V30 18 1 16 19
M  V30 19 2 17 20
M  V30 20 2 18 21
M  V30 21 2 18 22
M  V30 22 1 18 23
M  V30 23 2 19 24
M  V30 24 1 19 25
M  V30 25 2 23 26
M  V30 26 1 23 27
M  V30 27 1 25 28
M  V30 28 1 25 29
M  V30 29 1 25 30
M  V30 30 1 26 31
M  V30 31 2 27 32
M  V30 32 2 31 33
M  V30 33 1 31 34
M  V30 34 1 34 35
M  V30 35 1 34 36
M  V30 36 1 34 37
M  V30 37 1 6 7
M  V30 38 1 9 10
M  V30 39 1 20 24
M  V30 40 1 32 33
M  V30 END BOND
M  V30 END CTAB
M  END
>  <Molecule ChEMBL ID>
CHEMBL218230

>  <Smiles>
O=C(NS(=O)(=O)c1cccc(C(F)(F)F)c1)c1cc2cc(Cl)ccc2n1Cc1cccc(C(F)(F)F)c1

>  <IC50_nM>
330

>  <Assay Description>
Displacement of Fluormone from PPAR gamma

$$$$
CHEMBL181087
Actelion Java MolfileCreator 2.0

  0  0  0  0  0  0              0 V3000
M  V30 BEGIN CTAB
M  V30 COUNTS 33 36 0 0 0
M  V30 BEGIN ATOM
M  V30 1 Cl 9.4002 -1.9223 0.0 0
M  V30 2 C 8.9935 -1.0087 0.0 0
M  V30 3 C 9.5813 -0.1997 0.0 0
M  V30 4 C 7.999 -0.9042 0.0 0
M  V30 5 C 9.1746 0.7138 0.0 0
M  V30 6 C 7.5923 0.0093 0.0 0
M  V30 7 C 8.18 0.8183 0.0 0
M  V30 8 C 7.7733 1.7318 0.0 0
M  V30 9 O 8.3611 2.5408 0.0 0
M  V30 10 N 6.7788 1.8364 0.0 0
M  V30 11 C 6.2788 2.7024 0.0 0
M  V30 12 C 6.1096 1.0932 0.0 0
M  V30 13 C 5.3006 2.4945 0.0 0
M  V30 14 C 6.5878 3.6534 0.0 0
M  V30 15 C 5.1961 1.4999 0.0 0
M  V30 16 C 6.3176 0.1151 0.0 0
M  V30 17 C 4.6315 3.2376 0.0 0
M  V30 18 C 5.9187 4.3966 0.0 0
M  V30 19 C 4.3301 1.0 0.0 0
M  V30 20 C 4.9405 4.1887 0.0 0
M  V30 21 C 4.3301 0.0 0.0 0
M  V30 22 O 4.2714 4.9318 0.0 0
M  V30 23 C 3.4641 -0.5 0.0 0
M  V30 24 C 5.1961 -0.5 0.0 0
M  V30 25 C 3.2932 4.7239 0.0 0
M  V30 26 O 2.598 0.0 0.0 0
M  V30 27 C 3.4641 -1.5 0.0 0
M  V30 28 C 5.1961 -1.5 0.0 0
M  V30 29 C 1.732 -0.5 0.0 0
M  V30 30 C 4.3301 -2.0 0.0 0
M  V30 31 C 0.866 0.0 0.0 0
M  V30 32 O 0.866 1.0 0.0 0
M  V30 33 O 0.0 -0.5 0.0 0
M  V30 END ATOM
M  V30 BEGIN BOND
M  V30 1 1 1 2
M  V30 2 2 2 3
M  V30 3 1 2 4
M  V30 4 1 3 5
M  V30 5 2 4 6
M  V30 6 2 5 7
M  V30 7 1 7 8
M  V30 8 2 8 9
M  V30 9 1 8 10
M  V30 10 1 10 11
M  V30 11 1 10 12
M  V30 12 2 11 13
M  V30 13 1 11 14
M  V30 14 2 12 15
M  V30 15 1 12 16
M  V30 16 1 13 17
M  V30 17 2 14 18
M  V30 18 1 15 19
M  V30 19 2 17 20
M  V30 20 1 19 21
M  V30 21 1 20 22
M  V30 22 2 21 23
M  V30 23 1 21 24
M  V30 24 1 22 25
M  V30 25 1 23 26
M  V30 26 1 23 27
M  V30 27 2 24 28
M  V30 28 1 26 29
M  V30 29 2 27 30
M  V30 30 1 29 31
M  V30 31 2 31 32
M  V30 32 1 31 33
M  V30 33 1 6 7
M  V30 34 1 13 15
M  V30 35 1 18 20
M  V30 36 1 28 30
M  V30 END BOND
M  V30 END CTAB
M  END
>  <Molecule ChEMBL ID>
CHEMBL181087

>  <Smiles>
COc1ccc2c(c1)c(Cc1ccccc1OCC(=O)O)c(C)n2C(=O)c1ccc(Cl)cc1

>  <IC50_nM>
333

>  <Assay Description>
In vitro inhibition of human Peroxisome proliferator activated receptor gamma

$$$$
CHEMBL94716
Actelion Java MolfileCreator 2.0

  0  0  0  0  0  0              0 V3000
M  V30 BEGIN CTAB
M  V30 COUNTS 38 41 0 0 0
M  V30 BEGIN ATOM
M  V30 1 S 8.7077 -0.4067 0.0 0
M  V30 2 C 9.3769 0.3364 0.0 0
M  V30 3 C 7.7942 0.0 0.0 0 CFG=2
M  V30 4 O 10.3714 0.2318 0.0 0
M  V30 5 N 8.8769 1.2024 0.0 0
M  V30 6 C 6.9282 -0.5 0.0 0
M  V30 7 C 7.8987 0.9945 0.0 0
M  V30 8 C 6.0621 0.0 0.0 0
M  V30 9 C 6.9282 -1.5 0.0 0
M  V30 10 O 7.1556 1.6636 0.0 0
M  V30 11 C 5.1961 -0.5 0.0 0
M  V30 12 C 6.0621 -2.0 0.0 0
M  V30 13 O 4.3301 0.0 0.0 0
M  V30 14 C 5.1961 -1.5 0.0 0
M  V30 15 C 3.4641 -0.5 0.0 0
M  V30 16 C 2.598 0.0 0.0 0
M  V30 17 C 1.732 -0.5 0.0 0
M  V30 18 O 0.866 0.0 0.0 0
M  V30 19 C 0.0 -0.5 0.0 0
M  V30 20 C -0.866 0.0 0.0 0
M  V30 21 C 0.0 -1.4999 0.0 0
M  V30 22 C -1.732 -0.4999 0.0 0
M  V30 23 C -0.866 1.0 0.0 0
M  V30 24 C -0.866 -1.9999 0.0 0
M  V30 25 C -1.732 -1.4999 0.0 0
M  V30 26 C 0.0 1.5 0.0 0
M  V30 27 O -2.598 -1.9999 0.0 0
M  V30 28 C 0.0 2.5 0.0 0
M  V30 29 C -2.598 -2.9999 0.0 0
M  V30 30 C -3.4641 -3.4999 0.0 0
M  V30 31 C -1.732 -3.4999 0.0 0
M  V30 32 C -3.4641 -4.4999 0.0 0
M  V30 33 C -1.732 -4.4999 0.0 0
M  V30 34 C -2.598 -4.9999 0.0 0
M  V30 35 C -2.598 -5.9999 0.0 0
M  V30 36 C -1.598 -5.9999 0.0 0
M  V30 37 C -2.598 -6.9999 0.0 0
M  V30 38 C -3.598 -5.9999 0.0 0
M  V30 END ATOM
M  V30 BEGIN BOND
M  V30 1 1 1 2
M  V30 2 1 1 3
M  V30 3 2 2 4
M  V30 4 1 2 5
M  V30 5 1 3 6 CFG=3
M  V30 6 1 3 7
M  V30 7 2 6 8
M  V30 8 1 6 9
M  V30 9 2 7 10
M  V30 10 1 8 11
M  V30 11 2 9 12
M  V30 12 1 11 13
M  V30 13 2 11 14
M  V30 14 1 13 15
M  V30 15 1 15 16
M  V30 16 1 16 17
M  V30 17 1 17 18
M  V30 18 1 18 19
M  V30 19 2 19 20
M  V30 20 1 19 21
M  V30 21 1 20 22
M  V30 22 1 20 23
M  V30 23 2 21 24
M  V30 24 2 22 25
M  V30 25 1 23 26
M  V30 26 1 25 27
M  V30 27 1 26 28
M  V30 28 1 27 29
M  V30 29 2 29 30
M  V30 30 1 29 31
M  V30 31 1 30 32
M  V30 32 2 31 33
M  V30 33 2 32 34
M  V30 34 1 34 35
M  V30 35 1 35 36
M  V30 36 1 35 37
M  V30 37 1 35 38
M  V30 38 1 5 7
M  V30 39 1 12 14
M  V30 40 1 24 25
M  V30 41 1 33 34
M  V30 END BOND
M  V30 BEGIN COLLECTION
M  V30 MDLV30/STERAC1 ATOMS=(1 3)
M  V30 END COLLECTION
M  V30 END CTAB
M  END
>  <Molecule ChEMBL ID>
CHEMBL94716

>  <Smiles>
CCCc1cc(Oc2ccc(C(C)(C)C)cc2)ccc1OCCCOc1cccc(C2SC(=O)NC2=O)c1

>  <IC50_nM>
335

>  <Assay Description>
In vitro binding affinity against human peroxisome proliferator activated receptor gamma

$$$$
CHEMBL1783038
Actelion Java MolfileCreator 2.0

  0  0  0  0  0  0              0 V3000
M  V30 BEGIN CTAB
M  V30 COUNTS 38 41 0 0 0
M  V30 BEGIN ATOM
M  V30 1 S 8.7077 -0.4067 0.0 0
M  V30 2 C 9.3769 0.3364 0.0 0
M  V30 3 C 7.7942 0.0 0.0 0 CFG=2
M  V30 4 O 10.3714 0.2318 0.0 0
M  V30 5 N 8.8769 1.2024 0.0 0
M  V30 6 C 6.9282 -0.5 0.0 0
M  V30 7 C 7.8987 0.9945 0.0 0
M  V30 8 C 6.0621 0.0 0.0 0
M  V30 9 C 6.9282 -1.5 0.0 0
M  V30 10 O 7.1556 1.6636 0.0 0
M  V30 11 C 5.1961 -0.5 0.0 0
M  V30 12 C 6.0621 -2.0 0.0 0
M  V30 13 O 4.3301 0.0 0.0 0
M  V30 14 C 5.1961 -1.5 0.0 0
M  V30 15 C 3.4641 -0.5 0.0 0
M  V30 16 C 2.598 0.0 0.0 0
M  V30 17 C 1.732 -0.5 0.0 0
M  V30 18 O 0.866 0.0 0.0 0
M  V30 19 C 0.0 -0.5 0.0 0
M  V30 20 C -0.866 0.0 0.0 0
M  V30 21 C 0.0 -1.4999 0.0 0
M  V30 22 C -1.732 -0.4999 0.0 0
M  V30 23 C -0.866 1.0 0.0 0
M  V30 24 C -0.866 -1.9999 0.0 0
M  V30 25 C -1.732 -1.4999 0.0 0
M  V30 26 C 0.0 1.5 0.0 0
M  V30 27 O -2.598 -1.9999 0.0 0
M  V30 28 C 0.0 2.5 0.0 0
M  V30 29 C -2.598 -2.9999 0.0 0
M  V30 30 C -3.4641 -3.4999 0.0 0
M  V30 31 C -1.732 -3.4999 0.0 0
M  V30 32 C -3.4641 -4.4999 0.0 0
M  V30 33 C -1.732 -4.4999 0.0 0
M  V30 34 C -2.598 -4.9999 0.0 0
M  V30 35 C -2.598 -5.9999 0.0 0
M  V30 36 C -1.598 -5.9999 0.0 0
M  V30 37 C -2.598 -6.9999 0.0 0
M  V30 38 C -3.598 -5.9999 0.0 0
M  V30 END ATOM
M  V30 BEGIN BOND
M  V30 1 1 1 2
M  V30 2 1 1 3
M  V30 3 2 2 4
M  V30 4 1 2 5
M  V30 5 1 3 6 CFG=3
M  V30 6 1 3 7
M  V30 7 2 6 8
M  V30 8 1 6 9
M  V30 9 2 7 10
M  V30 10 1 8 11
M  V30 11 2 9 12
M  V30 12 1 11 13
M  V30 13 2 11 14
M  V30 14 1 13 15
M  V30 15 1 15 16
M  V30 16 1 16 17
M  V30 17 1 17 18
M  V30 18 1 18 19
M  V30 19 2 19 20
M  V30 20 1 19 21
M  V30 21 1 20 22
M  V30 22 1 20 23
M  V30 23 2 21 24
M  V30 24 2 22 25
M  V30 25 1 23 26
M  V30 26 1 25 27
M  V30 27 1 26 28
M  V30 28 1 27 29
M  V30 29 2 29 30
M  V30 30 1 29 31
M  V30 31 1 30 32
M  V30 32 2 31 33
M  V30 33 2 32 34
M  V30 34 1 34 35
M  V30 35 1 35 36
M  V30 36 1 35 37
M  V30 37 1 35 38
M  V30 38 1 5 7
M  V30 39 1 12 14
M  V30 40 1 24 25
M  V30 41 1 33 34
M  V30 END BOND
M  V30 BEGIN COLLECTION
M  V30 MDLV30/STEABS ATOMS=(1 3)
M  V30 END COLLECTION
M  V30 END CTAB
M  END
>  <Molecule ChEMBL ID>
CHEMBL1783038

>  <Smiles>
CCCc1cc(Oc2ccc(C(C)(C)C)cc2)ccc1OCCCOc1cccc([C@H]2SC(=O)NC2=O)c1

>  <IC50_nM>
335

>  <Assay Description>
Displacement of radio-labeled full agonist from PPARgamma receptor

$$$$
CHEMBL122417
Actelion Java MolfileCreator 2.0

  0  0  0  0  0  0              0 V3000
M  V30 BEGIN CTAB
M  V30 COUNTS 27 29 0 0 0
M  V30 BEGIN ATOM
M  V30 1 O 9.2836 2.1159 0.0 0
M  V30 2 C 8.8769 1.2024 0.0 0
M  V30 3 O 7.8987 0.9945 0.0 0
M  V30 4 N 9.3769 0.3364 0.0 0
M  V30 5 C 7.7942 0.0 0.0 0 CFG=1
M  V30 6 C 8.7077 -0.4067 0.0 0
M  V30 7 C 6.9282 -0.5 0.0 0
M  V30 8 O 8.9156 -1.3848 0.0 0
M  V30 9 C 6.0621 0.0 0.0 0
M  V30 10 C 6.9282 -1.5 0.0 0
M  V30 11 C 5.1961 -0.5 0.0 0
M  V30 12 C 6.0621 -2.0 0.0 0
M  V30 13 O 4.3301 0.0 0.0 0
M  V30 14 C 5.1961 -1.5 0.0 0
M  V30 15 C 3.4641 -0.5 0.0 0
M  V30 16 C 2.598 0.0 0.0 0
M  V30 17 C 1.732 -0.5 0.0 0
M  V30 18 O 0.866 0.0 0.0 0
M  V30 19 C 0.0 -0.5 0.0 0
M  V30 20 C -0.866 0.0 0.0 0
M  V30 21 C 0.0 -1.4999 0.0 0
M  V30 22 C -1.732 -0.4999 0.0 0
M  V30 23 C -0.866 1.0 0.0 0
M  V30 24 C -0.866 -1.9999 0.0 0
M  V30 25 C -1.732 -1.4999 0.0 0
M  V30 26 C 0.0 1.5 0.0 0
M  V30 27 C 0.0 2.5 0.0 0
M  V30 END ATOM
M  V30 BEGIN BOND
M  V30 1 2 1 2
M  V30 2 1 2 3
M  V30 3 1 2 4
M  V30 4 1 3 5
M  V30 5 1 4 6
M  V30 6 1 5 7 CFG=1
M  V30 7 2 6 8
M  V30 8 2 7 9
M  V30 9 1 7 10
M  V30 10 1 9 11
M  V30 11 2 10 12
M  V30 12 1 11 13
M  V30 13 2 11 14
M  V30 14 1 13 15
M  V30 15 1 15 16
M  V30 16 1 16 17
M  V30 17 1 17 18
M  V30 18 1 18 19
M  V30 19 2 19 20
M  V30 20 1 19 21
M  V30 21 1 20 22
M  V30 22 1 20 23
M  V30 23 2 21 24
M  V30 24 2 22 25
M  V30 25 1 23 26
M  V30 26 1 26 27
M  V30 27 1 5 6
M  V30 28 1 12 14
M  V30 29 1 24 25
M  V30 END BOND
M  V30 BEGIN COLLECTION
M  V30 MDLV30/STERAC1 ATOMS=(1 5)
M  V30 END COLLECTION
M  V30 END CTAB
M  END
>  <Molecule ChEMBL ID>
CHEMBL122417

>  <Smiles>
CCCc1ccccc1OCCCOc1cccc(C2OC(=O)NC2=O)c1

>  <IC50_nM>
340

>  <Assay Description>
In vitro binding affinity against human peroxisome proliferator activated receptor gamma

$$$$
CHEMBL1783048
Actelion Java MolfileCreator 2.0

  0  0  0  0  0  0              0 V3000
M  V30 BEGIN CTAB
M  V30 COUNTS 33 36 0 0 0
M  V30 BEGIN ATOM
M  V30 1 S 8.7077 -0.4067 0.0 0
M  V30 2 C 9.3769 0.3364 0.0 0
M  V30 3 C 7.7942 0.0 0.0 0 CFG=2
M  V30 4 O 10.3714 0.2318 0.0 0
M  V30 5 N 8.8769 1.2024 0.0 0
M  V30 6 C 6.9282 -0.5 0.0 0
M  V30 7 C 7.8987 0.9945 0.0 0
M  V30 8 C 6.0621 0.0 0.0 0
M  V30 9 C 6.9282 -1.5 0.0 0
M  V30 10 O 7.1556 1.6636 0.0 0
M  V30 11 C 5.1961 -0.5 0.0 0
M  V30 12 C 6.0621 -2.0 0.0 0
M  V30 13 O 4.3301 0.0 0.0 0
M  V30 14 C 5.1961 -1.5 0.0 0
M  V30 15 C 3.4641 -0.5 0.0 0
M  V30 16 C 2.598 0.0 0.0 0
M  V30 17 C 1.732 -0.5 0.0 0
M  V30 18 O 0.866 0.0 0.0 0
M  V30 19 C 0.0 -0.5 0.0 0
M  V30 20 C -0.866 0.0 0.0 0
M  V30 21 C 0.0 -1.4999 0.0 0
M  V30 22 C -1.732 -0.4999 0.0 0
M  V30 23 C -0.866 1.0 0.0 0
M  V30 24 C -0.866 -1.9999 0.0 0
M  V30 25 C -1.732 -1.4999 0.0 0
M  V30 26 C 0.0 1.5 0.0 0
M  V30 27 C -2.598 -1.9999 0.0 0
M  V30 28 C 0.0 2.5 0.0 0
M  V30 29 C -3.4641 -1.4999 0.0 0
M  V30 30 C -2.598 -2.9999 0.0 0
M  V30 31 C -4.3301 -1.9999 0.0 0
M  V30 32 C -3.4641 -3.4999 0.0 0
M  V30 33 C -4.3301 -2.9999 0.0 0
M  V30 END ATOM
M  V30 BEGIN BOND
M  V30 1 1 1 2
M  V30 2 1 1 3
M  V30 3 2 2 4
M  V30 4 1 2 5
M  V30 5 1 3 6 CFG=3
M  V30 6 1 3 7
M  V30 7 2 6 8
M  V30 8 1 6 9
M  V30 9 2 7 10
M  V30 10 1 8 11
M  V30 11 2 9 12
M  V30 12 1 11 13
M  V30 13 2 11 14
M  V30 14 1 13 15
M  V30 15 1 15 16
M  V30 16 1 16 17
M  V30 17 1 17 18
M  V30 18 1 18 19
M  V30 19 2 19 20
M  V30 20 1 19 21
M  V30 21 1 20 22
M  V30 22 1 20 23
M  V30 23 2 21 24
M  V30 24 2 22 25
M  V30 25 1 23 26
M  V30 26 1 25 27
M  V30 27 1 26 28
M  V30 28 1 27 29
M  V30 29 1 27 30
M  V30 30 1 29 31
M  V30 31 1 30 32
M  V30 32 1 31 33
M  V30 33 1 5 7
M  V30 34 1 12 14
M  V30 35 1 24 25
M  V30 36 1 32 33
M  V30 END BOND
M  V30 BEGIN COLLECTION
M  V30 MDLV30/STEABS ATOMS=(1 3)
M  V30 END COLLECTION
M  V30 END CTAB
M  END
>  <Molecule ChEMBL ID>
CHEMBL1783048

>  <Smiles>
CCCc1cc(C2CCCCC2)ccc1OCCCOc1cccc([C@H]2SC(=O)NC2=O)c1

>  <IC50_nM>
340

>  <Assay Description>
Displacement of radio-labeled full agonist from PPARgamma receptor

$$$$
CHEMBL3398461
Actelion Java MolfileCreator 2.0

  0  0  0  0  0  0              0 V3000
M  V30 BEGIN CTAB
M  V30 COUNTS 40 44 0 0 0
M  V30 BEGIN ATOM
M  V30 1 O 7.8298 -6.4249 0.0 0
M  V30 2 C 8.4176 -5.6159 0.0 0
M  V30 3 O 9.4121 -5.7205 0.0 0
M  V30 4 N 8.0108 -4.7024 0.0 0
M  V30 5 C 9.9999 -4.9114 0.0 0
M  V30 6 C 8.5108 -3.8364 0.0 0
M  V30 7 C 7.0327 -4.4945 0.0 0
M  V30 8 C 10.9944 -5.016 0.0 0
M  V30 9 C 9.5931 -3.9979 0.0 0
M  V30 10 C 7.8417 -3.0932 0.0 0 CFG=1
M  V30 11 C 6.9282 -3.5 0.0 0 CFG=1
M  V30 12 C 11.5822 -4.207 0.0 0
M  V30 13 C 10.1809 -3.1889 0.0 0
M  V30 14 C 8.0496 -2.1151 0.0 0
M  V30 15 C 6.0621 -3.0 0.0 0
M  V30 16 C 11.1754 -3.2934 0.0 0
M  V30 17 O 9.0007 -1.806 0.0 0
M  V30 18 O 7.3065 -1.4459 0.0 0
M  V30 19 C 6.0621 -1.9999 0.0 0
M  V30 20 C 5.1961 -1.4999 0.0 0
M  V30 21 C 5.1961 -0.5 0.0 0
M  V30 22 C 4.3301 -1.9999 0.0 0
M  V30 23 C 4.3301 0.0 0.0 0
M  V30 24 C 3.4641 -1.5 0.0 0
M  V30 25 C 3.4641 -0.5 0.0 0
M  V30 26 O 2.598 0.0 0.0 0
M  V30 27 C 1.732 -0.5 0.0 0
M  V30 28 C 0.866 0.0 0.0 0
M  V30 29 C 0.0 -0.5 0.0 0
M  V30 30 N -0.9135 -0.0932 0.0 0
M  V30 31 C -0.1045 -1.4945 0.0 0
M  V30 32 C -1.5826 -0.8364 0.0 0
M  V30 33 O -1.0826 -1.7024 0.0 0
M  V30 34 C 0.6386 -2.1636 0.0 0
M  V30 35 C -2.5771 -0.7318 0.0 0
M  V30 36 C -2.9839 0.1816 0.0 0
M  V30 37 C -3.1649 -1.5408 0.0 0
M  V30 38 C -3.9784 0.2861 0.0 0
M  V30 39 C -4.1595 -1.4363 0.0 0
M  V30 40 C -4.5662 -0.5228 0.0 0
M  V30 END ATOM
M  V30 BEGIN BOND
M  V30 1 2 1 2
M  V30 2 1 2 3
M  V30 3 1 2 4
M  V30 4 1 3 5
M  V30 5 1 4 6
M  V30 6 1 4 7
M  V30 7 2 5 8
M  V30 8 1 5 9
M  V30 9 1 6 10
M  V30 10 1 7 11
M  V30 11 1 8 12
M  V30 12 2 9 13
M  V30 13 1 10 14 CFG=1
M  V30 14 1 11 15 CFG=3
M  V30 15 2 12 16
M  V30 16 2 14 17
M  V30 17 1 14 18
M  V30 18 1 15 19
M  V30 19 1 19 20
M  V30 20 2 20 21
M  V30 21 1 20 22
M  V30 22 1 21 23
M  V30 23 2 22 24
M  V30 24 2 23 25
M  V30 25 1 25 26
M  V30 26 1 26 27
M  V30 27 1 27 28
M  V30 28 1 28 29
M  V30 29 1 29 30
M  V30 30 2 29 31
M  V30 31 2 30 32
M  V30 32 1 31 33
M  V30 33 1 31 34
M  V30 34 1 32 35
M  V30 35 2 35 36
M  V30 36 1 35 37
M  V30 37 1 36 38
M  V30 38 2 37 39
M  V30 39 2 38 40
M  V30 40 1 10 11
M  V30 41 1 13 16
M  V30 42 1 24 25
M  V30 43 1 32 33
M  V30 44 1 39 40
M  V30 END BOND
M  V30 BEGIN COLLECTION
M  V30 MDLV30/STEABS ATOMS=(2 10 11)
M  V30 END COLLECTION
M  V30 END CTAB
M  END
>  <Molecule ChEMBL ID>
CHEMBL3398461

>  <Smiles>
Cc1oc(-c2ccccc2)nc1CCOc1ccc(CC[C@H]2CN(C(=O)Oc3ccccc3)C[C@@H]2C(=O)O)cc1

>  <IC50_nM>
340

>  <Assay Description>
Binding affinity to PPARgamma (unknown origin) using fluorescein-tagged dual PPARalpha/gamma activator by homogeneous fluorescence polarization binding assay

$$$$
CHEMBL408
Actelion Java MolfileCreator 2.0

  0  0  0  0  0  0              0 V3000
M  V30 BEGIN CTAB
M  V30 COUNTS 31 34 0 0 0
M  V30 BEGIN ATOM
M  V30 1 S 6.1667 0.0054 0.0 0
M  V30 2 C 7.1448 -0.2024 0.0 0
M  V30 3 C 6.0621 1.0 0.0 0
M  V30 4 O 7.5515 -1.1159 0.0 0
M  V30 5 N 7.6448 0.6635 0.0 0
M  V30 6 C 6.9757 1.4067 0.0 0
M  V30 7 C 5.1961 1.5 0.0 0
M  V30 8 O 7.1836 2.3848 0.0 0
M  V30 9 C 4.3301 1.0 0.0 0
M  V30 10 C 3.4641 1.5 0.0 0
M  V30 11 C 4.3301 0.0 0.0 0
M  V30 12 C 2.598 0.9999 0.0 0
M  V30 13 C 3.4641 -0.4999 0.0 0
M  V30 14 C 2.598 0.0 0.0 0
M  V30 15 O 1.732 -0.5 0.0 0
M  V30 16 C 0.866 0.0 0.0 0
M  V30 17 C 0.0 -0.5 0.0 0
M  V30 18 O -0.866 0.0 0.0 0
M  V30 19 C 0.0 -1.4999 0.0 0
M  V30 20 C 0.866 -1.0 0.0 0
M  V30 21 C -1.732 -0.4999 0.0 0
M  V30 22 C -0.866 -1.9999 0.0 0
M  V30 23 C -1.732 -1.4999 0.0 0
M  V30 24 C -2.598 0.0 0.0 0
M  V30 25 C -2.598 -1.9999 0.0 0
M  V30 26 C -3.4641 -0.4999 0.0 0
M  V30 27 C -2.598 1.0 0.0 0
M  V30 28 C -3.4641 -1.4999 0.0 0
M  V30 29 C -2.598 -2.9999 0.0 0
M  V30 30 C -4.3301 0.0 0.0 0
M  V30 31 O -4.3301 -1.9999 0.0 0
M  V30 END ATOM
M  V30 BEGIN BOND
M  V30 1 1 1 2
M  V30 2 1 1 3
M  V30 3 2 2 4
M  V30 4 1 2 5
M  V30 5 1 3 6
M  V30 6 1 3 7
M  V30 7 2 6 8
M  V30 8 1 7 9
M  V30 9 2 9 10
M  V30 10 1 9 11
M  V30 11 1 10 12
M  V30 12 2 11 13
M  V30 13 2 12 14
M  V30 14 1 14 15
M  V30 15 1 15 16
M  V30 16 1 16 17
M  V30 17 1 17 18
M  V30 18 1 17 19
M  V30 19 1 17 20
M  V30 20 1 18 21
M  V30 21 1 19 22
M  V30 22 2 21 23
M  V30 23 1 21 24
M  V30 24 1 23 25
M  V30 25 2 24 26
M  V30 26 1 24 27
M  V30 27 2 25 28
M  V30 28 1 25 29
M  V30 29 1 26 30
M  V30 30 1 28 31
M  V30 31 1 5 6
M  V30 32 1 13 14
M  V30 33 1 22 23
M  V30 34 1 26 28
M  V30 END BOND
M  V30 END CTAB
M  END
>  <Molecule ChEMBL ID>
CHEMBL408

>  <Smiles>
Cc1c(C)c2c(c(C)c1O)CCC(C)(COc1ccc(CC3SC(=O)NC3=O)cc1)O2

>  <IC50_nM>
340

>  <Assay Description>
Agonist activity at PPARgamma (unknown origin)

$$$$
CHEMBL241286
Actelion Java MolfileCreator 2.0

  0  0  0  0  0  0              0 V3000
M  V30 BEGIN CTAB
M  V30 COUNTS 31 33 0 0 0
M  V30 BEGIN ATOM
M  V30 1 S 9.8432 3.8082 0.0 0
M  V30 2 C 8.3432 3.8082 0.0 0
M  V30 3 C 10.3067 2.3816 0.0 0
M  V30 4 N 7.8797 2.3816 0.0 0
M  V30 5 C 9.0932 1.5 0.0 0
M  V30 6 C 9.0932 0.0 0.0 0
M  V30 7 C 7.7942 -0.75 0.0 0
M  V30 8 C 10.3923 -0.7499 0.0 0
M  V30 9 O 6.4951 0.0 0.0 0
M  V30 10 C 7.7942 -2.25 0.0 0
M  V30 11 C 10.3923 -2.2499 0.0 0
M  V30 12 C 5.1961 -0.75 0.0 0 CFG=1
M  V30 13 C 9.0932 -2.9999 0.0 0
M  V30 14 C 11.6913 -2.9999 0.0 0
M  V30 15 C 3.8971 0.0 0.0 0
M  V30 16 C 5.1961 -2.25 0.0 0
M  V30 17 C 12.9903 -2.2499 0.0 0
M  V30 18 C 2.598 -0.75 0.0 0
M  V30 19 O 1.299 0.0 0.0 0
M  V30 20 C 0.0 -0.75 0.0 0
M  V30 21 C -1.299 0.0 0.0 0
M  V30 22 C 0.0 -2.25 0.0 0
M  V30 23 C -2.598 -0.7499 0.0 0
M  V30 24 C -1.299 -2.9999 0.0 0
M  V30 25 C -2.598 -2.2499 0.0 0
M  V30 26 C -3.8971 0.0 0.0 0
M  V30 27 C -3.8971 -2.9999 0.0 0
M  V30 28 C -3.8971 -4.4999 0.0 0
M  V30 29 C -5.1961 -5.2499 0.0 0
M  V30 30 O -6.4951 -4.4999 0.0 0
M  V30 31 O -5.1961 -6.7499 0.0 0
M  V30 END ATOM
M  V30 BEGIN BOND
M  V30 1 1 1 2
M  V30 2 1 1 3
M  V30 3 2 2 4
M  V30 4 2 3 5
M  V30 5 1 5 6
M  V30 6 2 6 7
M  V30 7 1 6 8
M  V30 8 1 7 9
M  V30 9 1 7 10
M  V30 10 2 8 11
M  V30 11 1 9 12
M  V30 12 2 10 13
M  V30 13 1 11 14
M  V30 14 1 12 15
M  V30 15 1 12 16 CFG=3
M  V30 16 1 14 17
M  V30 17 1 15 18
M  V30 18 1 18 19
M  V30 19 1 19 20
M  V30 20 2 20 21
M  V30 21 1 20 22
M  V30 22 1 21 23
M  V30 23 2 22 24
M  V30 24 2 23 25
M  V30 25 1 23 26
M  V30 26 1 25 27
M  V30 27 1 27 28
M  V30 28 1 28 29
M  V30 29 2 29 30
M  V30 30 1 29 31
M  V30 31 1 4 5
M  V30 32 1 11 13
M  V30 33 1 24 25
M  V30 END BOND
M  V30 BEGIN COLLECTION
M  V30 MDLV30/STEABS ATOMS=(1 12)
M  V30 END COLLECTION
M  V30 END CTAB
M  END
>  <Molecule ChEMBL ID>
CHEMBL241286

>  <Smiles>
CCc1ccc(O[C@H](C)CCOc2ccc(CCC(=O)O)c(C)c2)c(-c2cscn2)c1

>  <IC50_nM>
345.94

>  <Assay Description>
Agonist activity at PPARgamma

$$$$
CHEMBL241286
Actelion Java MolfileCreator 2.0

  0  0  0  0  0  0              0 V3000
M  V30 BEGIN CTAB
M  V30 COUNTS 31 33 0 0 0
M  V30 BEGIN ATOM
M  V30 1 S 9.8432 3.8082 0.0 0
M  V30 2 C 8.3432 3.8082 0.0 0
M  V30 3 C 10.3067 2.3816 0.0 0
M  V30 4 N 7.8797 2.3816 0.0 0
M  V30 5 C 9.0932 1.5 0.0 0
M  V30 6 C 9.0932 0.0 0.0 0
M  V30 7 C 7.7942 -0.75 0.0 0
M  V30 8 C 10.3923 -0.7499 0.0 0
M  V30 9 O 6.4951 0.0 0.0 0
M  V30 10 C 7.7942 -2.25 0.0 0
M  V30 11 C 10.3923 -2.2499 0.0 0
M  V30 12 C 5.1961 -0.75 0.0 0 CFG=1
M  V30 13 C 9.0932 -2.9999 0.0 0
M  V30 14 C 11.6913 -2.9999 0.0 0
M  V30 15 C 3.8971 0.0 0.0 0
M  V30 16 C 5.1961 -2.25 0.0 0
M  V30 17 C 12.9903 -2.2499 0.0 0
M  V30 18 C 2.598 -0.75 0.0 0
M  V30 19 O 1.299 0.0 0.0 0
M  V30 20 C 0.0 -0.75 0.0 0
M  V30 21 C -1.299 0.0 0.0 0
M  V30 22 C 0.0 -2.25 0.0 0
M  V30 23 C -2.598 -0.7499 0.0 0
M  V30 24 C -1.299 -2.9999 0.0 0
M  V30 25 C -2.598 -2.2499 0.0 0
M  V30 26 C -3.8971 0.0 0.0 0
M  V30 27 C -3.8971 -2.9999 0.0 0
M  V30 28 C -3.8971 -4.4999 0.0 0
M  V30 29 C -5.1961 -5.2499 0.0 0
M  V30 30 O -6.4951 -4.4999 0.0 0
M  V30 31 O -5.1961 -6.7499 0.0 0
M  V30 END ATOM
M  V30 BEGIN BOND
M  V30 1 1 1 2
M  V30 2 1 1 3
M  V30 3 2 2 4
M  V30 4 2 3 5
M  V30 5 1 5 6
M  V30 6 2 6 7
M  V30 7 1 6 8
M  V30 8 1 7 9
M  V30 9 1 7 10
M  V30 10 2 8 11
M  V30 11 1 9 12
M  V30 12 2 10 13
M  V30 13 1 11 14
M  V30 14 1 12 15
M  V30 15 1 12 16 CFG=3
M  V30 16 1 14 17
M  V30 17 1 15 18
M  V30 18 1 18 19
M  V30 19 1 19 20
M  V30 20 2 20 21
M  V30 21 1 20 22
M  V30 22 1 21 23
M  V30 23 2 22 24
M  V30 24 2 23 25
M  V30 25 1 23 26
M  V30 26 1 25 27
M  V30 27 1 27 28
M  V30 28 1 28 29
M  V30 29 2 29 30
M  V30 30 1 29 31
M  V30 31 1 4 5
M  V30 32 1 11 13
M  V30 33 1 24 25
M  V30 END BOND
M  V30 BEGIN COLLECTION
M  V30 MDLV30/STEABS ATOMS=(1 12)
M  V30 END COLLECTION
M  V30 END CTAB
M  END
>  <Molecule ChEMBL ID>
CHEMBL241286

>  <Smiles>
CCc1ccc(O[C@H](C)CCOc2ccc(CCC(=O)O)c(C)c2)c(-c2cscn2)c1

>  <IC50_nM>
346

>  <Assay Description>
Displacement of [3H]2-methyl-2-(4-{3-[porpyl-(5-pyridin-2yl-thiophene-2-sulfonyl)-amino]-propyl}-phenoxy)-propionic acid from human PPARgamma

$$$$
CHEMBL4469716
Actelion Java MolfileCreator 2.0

  0  0  0  0  0  0              0 V3000
M  V30 BEGIN CTAB
M  V30 COUNTS 37 40 0 0 0
M  V30 BEGIN ATOM
M  V30 1 F 8.9455 4.887 0.0 0
M  V30 2 C 9.8965 4.578 0.0 0
M  V30 3 F 10.2055 5.529 0.0 0
M  V30 4 F 10.8476 4.2689 0.0 0
M  V30 5 C 9.5875 3.6269 0.0 0
M  V30 6 C 8.6094 3.419 0.0 0
M  V30 7 C 10.2566 2.8838 0.0 0
M  V30 8 C 8.3003 2.4679 0.0 0
M  V30 9 C 9.9476 1.9327 0.0 0
M  V30 10 C 8.9695 1.7248 0.0 0
M  V30 11 C 7.3222 2.26 0.0 0
M  V30 12 N 7.0132 1.309 0.0 0
M  V30 13 C 6.0621 0.9999 0.0 0
M  V30 14 C 7.601 0.5 0.0 0
M  V30 15 C 6.0621 0.0 0.0 0
M  V30 16 C 5.1961 1.4999 0.0 0
M  V30 17 C 7.0132 -0.309 0.0 0
M  V30 18 C 8.601 0.5 0.0 0
M  V30 19 C 5.1961 -0.5 0.0 0
M  V30 20 C 4.3301 0.9999 0.0 0
M  V30 21 C 7.3222 -1.26 0.0 0
M  V30 22 C 4.3301 0.0 0.0 0
M  V30 23 C 3.4641 -0.5 0.0 0
M  V30 24 O 3.4641 -1.5 0.0 0
M  V30 25 N 2.598 0.0 0.0 0
M  V30 26 C 1.732 -0.5 0.0 0 CFG=2
M  V30 27 C 1.732 -1.5 0.0 0
M  V30 28 C 0.866 0.0 0.0 0
M  V30 29 O 0.866 -2.0 0.0 0
M  V30 30 O 2.598 -1.9999 0.0 0
M  V30 31 C 0.0 -0.5 0.0 0
M  V30 32 C -0.866 0.0 0.0 0
M  V30 33 C 0.0 -1.4999 0.0 0
M  V30 34 C -1.732 -0.4999 0.0 0
M  V30 35 C -0.866 -1.9999 0.0 0
M  V30 36 C -1.732 -1.4999 0.0 0
M  V30 37 O -2.598 -1.9999 0.0 0
M  V30 END ATOM
M  V30 BEGIN BOND
M  V30 1 1 1 2
M  V30 2 1 2 3
M  V30 3 1 2 4
M  V30 4 1 2 5
M  V30 5 2 5 6
M  V30 6 1 5 7
M  V30 7 1 6 8
M  V30 8 2 7 9
M  V30 9 2 8 10
M  V30 10 1 8 11
M  V30 11 1 11 12
M  V30 12 1 12 13
M  V30 13 1 12 14
M  V30 14 2 13 15
M  V30 15 1 13 16
M  V30 16 2 14 17
M  V30 17 1 14 18
M  V30 18 1 15 19
M  V30 19 2 16 20
M  V30 20 1 17 21
M  V30 21 2 19 22
M  V30 22 1 22 23
M  V30 23 2 23 24
M  V30 24 1 23 25
M  V30 25 1 26 25 CFG=3
M  V30 26 1 26 27
M  V30 27 1 26 28
M  V30 28 2 27 29
M  V30 29 1 27 30
M  V30 30 1 28 31
M  V30 31 2 31 32
M  V30 32 1 31 33
M  V30 33 1 32 34
M  V30 34 2 33 35
M  V30 35 2 34 36
M  V30 36 1 36 37
M  V30 37 1 9 10
M  V30 38 1 15 17
M  V30 39 1 20 22
M  V30 40 1 35 36
M  V30 END BOND
M  V30 BEGIN COLLECTION
M  V30 MDLV30/STEABS ATOMS=(1 26)
M  V30 END COLLECTION
M  V30 END CTAB
M  END
>  <Molecule ChEMBL ID>
CHEMBL4469716

>  <Smiles>
Cc1c(C)n(Cc2cccc(C(F)(F)F)c2)c2ccc(C(=O)N[C@@H](Cc3ccc(O)cc3)C(=O)O)cc12

>  <IC50_nM>
346

>  <Assay Description>
Displacement of fluormone PPAR green tracer ligand from recombinant GST-tagged PPARgamma ligand binding domain (unknown origin) incubated for 4 hrs by competitive fluorescence polarization binding assay

$$$$
CHEMBL4068985
Actelion Java MolfileCreator 2.0

  0  0  0  0  0  0              0 V3000
M  V30 BEGIN CTAB
M  V30 COUNTS 43 47 0 0 0
M  V30 BEGIN ATOM
M  V30 1 S 5.1961 -0.75 0.0 0
M  V30 2 O 4.4461 -2.049 0.0 0
M  V30 3 O 5.9461 -2.049 0.0 0
M  V30 4 N 3.8971 0.0 0.0 0
M  V30 5 C 6.4951 0.0 0.0 0
M  V30 6 C 2.598 -0.75 0.0 0
M  V30 7 C 7.7942 -0.75 0.0 0
M  V30 8 C 6.4951 1.5 0.0 0
M  V30 9 O 2.598 -2.25 0.0 0
M  V30 10 N 1.299 0.0 0.0 0
M  V30 11 C 9.0932 0.0 0.0 0
M  V30 12 C 7.7942 2.25 0.0 0
M  V30 13 C 0.0 -0.75 0.0 0
M  V30 14 C 9.0932 1.5 0.0 0
M  V30 15 C -1.299 0.0 0.0 0
M  V30 16 C 0.0 -2.25 0.0 0
M  V30 17 N 10.3923 2.25 0.0 0
M  V30 18 C -2.598 -0.75 0.0 0
M  V30 19 C -1.299 -3.0 0.0 0
M  V30 20 C 11.6913 1.5 0.0 0
M  V30 21 C -2.598 -2.25 0.0 0
M  V30 22 O 11.6913 0.0 0.0 0
M  V30 23 C 12.9903 2.25 0.0 0
M  V30 24 S 14.2894 1.5 0.0 0
M  V30 25 C 15.5884 2.25 0.0 0
M  V30 26 N 16.8875 1.5 0.0 0
M  V30 27 N 15.5884 3.75 0.0 0
M  V30 28 C 18.1865 2.25 0.0 0
M  V30 29 C 16.8875 4.5 0.0 0
M  V30 30 C 14.2894 4.5 0.0 0
M  V30 31 C 18.1865 3.75 0.0 0
M  V30 32 C 19.4855 1.5 0.0 0
M  V30 33 O 16.8875 6.0 0.0 0
M  V30 34 C 14.2894 6.0 0.0 0
M  V30 35 C 12.9903 3.75 0.0 0
M  V30 36 C 19.4855 4.5 0.0 0
M  V30 37 C 20.7846 2.25 0.0 0
M  V30 38 C 12.9903 6.75 0.0 0
M  V30 39 C 11.6913 4.5 0.0 0
M  V30 40 C 20.7846 3.75 0.0 0
M  V30 41 C 11.6913 6.0 0.0 0
M  V30 42 O 10.3923 6.75 0.0 0
M  V30 43 C 9.0932 6.0 0.0 0
M  V30 END ATOM
M  V30 BEGIN BOND
M  V30 1 2 1 2
M  V30 2 2 1 3
M  V30 3 1 1 4
M  V30 4 1 1 5
M  V30 5 1 4 6
M  V30 6 2 5 7
M  V30 7 1 5 8
M  V30 8 2 6 9
M  V30 9 1 6 10
M  V30 10 1 7 11
M  V30 11 2 8 12
M  V30 12 1 10 13
M  V30 13 2 11 14
M  V30 14 1 13 15
M  V30 15 1 13 16
M  V30 16 1 14 17
M  V30 17 1 15 18
M  V30 18 1 16 19
M  V30 19 1 17 20
M  V30 20 1 18 21
M  V30 21 2 20 22
M  V30 22 1 20 23
M  V30 23 1 23 24
M  V30 24 1 24 25
M  V30 25 2 25 26
M  V30 26 1 25 27
M  V30 27 1 26 28
M  V30 28 1 27 29
M  V30 29 1 27 30
M  V30 30 2 28 31
M  V30 31 1 28 32
M  V30 32 2 29 33
M  V30 33 2 30 34
M  V30 34 1 30 35
M  V30 35 1 31 36
M  V30 36 2 32 37
M  V30 37 1 34 38
M  V30 38 2 35 39
M  V30 39 2 36 40
M  V30 40 2 38 41
M  V30 41 1 41 42
M  V30 42 1 42 43
M  V30 43 1 12 14
M  V30 44 1 19 21
M  V30 45 1 29 31
M  V30 46 1 37 40
M  V30 47 1 39 41
M  V30 END BOND
M  V30 END CTAB
M  END
>  <Molecule ChEMBL ID>
CHEMBL4068985

>  <Smiles>
COc1ccc(-n2c(SCC(=O)Nc3ccc(S(=O)(=O)NC(=O)NC4CCCCC4)cc3)nc3ccccc3c2=O)cc1

>  <IC50_nM>
350

>  <Assay Description>
Displacement of fluormone-PPARgamma green from GST-tagged PPARgamma-LBD (unknown origin) by fluorescence polarization assay

$$$$
CHEMBL282686
Actelion Java MolfileCreator 2.0

  0  0  0  0  0  0              0 V3000
M  V30 BEGIN CTAB
M  V30 COUNTS 28 29 0 0 0
M  V30 BEGIN ATOM
M  V30 1 S 18.1865 -2.25 0.0 0
M  V30 2 O 16.6865 -2.25 0.0 0
M  V30 3 O 19.6865 -2.25 0.0 0
M  V30 4 O 18.1865 -0.75 0.0 0
M  V30 5 C 18.1865 -3.75 0.0 0
M  V30 6 C 16.8874 0.0 0.0 0
M  V30 7 C 16.8874 1.4999 0.0 0
M  V30 8 C 15.5884 -0.75 0.0 0
M  V30 9 C 15.5884 2.2499 0.0 0
M  V30 10 C 14.2894 0.0 0.0 0
M  V30 11 C 14.2894 1.4999 0.0 0
M  V30 12 C 12.9903 2.2499 0.0 0
M  V30 13 C 11.6913 1.4999 0.0 0
M  V30 14 O 10.3923 2.2499 0.0 0
M  V30 15 C 9.0932 1.4999 0.0 0
M  V30 16 C 7.7942 2.2499 0.0 0
M  V30 17 C 9.0932 0.0 0.0 0
M  V30 18 C 6.4951 1.5 0.0 0
M  V30 19 C 7.7942 -0.75 0.0 0
M  V30 20 C 6.4951 0.0 0.0 0
M  V30 21 C 5.1961 -0.75 0.0 0
M  V30 22 C 3.8971 0.0 0.0 0 CFG=2
M  V30 23 O 2.598 -0.75 0.0 0
M  V30 24 C 3.8971 1.5 0.0 0
M  V30 25 C 1.299 0.0 0.0 0
M  V30 26 O 5.1961 2.25 0.0 0
M  V30 27 O 2.598 2.25 0.0 0
M  V30 28 C 0.0 -0.75 0.0 0
M  V30 END ATOM
M  V30 BEGIN BOND
M  V30 1 2 1 2
M  V30 2 2 1 3
M  V30 3 1 1 4
M  V30 4 1 1 5
M  V30 5 1 4 6
M  V30 6 2 6 7
M  V30 7 1 6 8
M  V30 8 1 7 9
M  V30 9 2 8 10
M  V30 10 2 9 11
M  V30 11 1 11 12
M  V30 12 1 12 13
M  V30 13 1 13 14
M  V30 14 1 14 15
M  V30 15 2 15 16
M  V30 16 1 15 17
M  V30 17 1 16 18
M  V30 18 2 17 19
M  V30 19 2 18 20
M  V30 20 1 20 21
M  V30 21 1 21 22
M  V30 22 1 22 23 CFG=3
M  V30 23 1 22 24
M  V30 24 1 23 25
M  V30 25 2 24 26
M  V30 26 1 24 27
M  V30 27 1 25 28
M  V30 28 1 10 11
M  V30 29 1 19 20
M  V30 END BOND
M  V30 BEGIN COLLECTION
M  V30 MDLV30/STEABS ATOMS=(1 22)
M  V30 END COLLECTION
M  V30 END CTAB
M  END
>  <Molecule ChEMBL ID>
CHEMBL282686

>  <Smiles>
CCO[C@@H](Cc1ccc(OCCc2ccc(OS(C)(=O)=O)cc2)cc1)C(=O)O

>  <IC50_nM>
350

>  <Assay Description>
Receptor binding affinity to human Peroxisome proliferator activated receptor gamma against [3H]ragalitazar radioligand

$$$$
CHEMBL3915254
Actelion Java MolfileCreator 2.0

  0  0  0  0  0  0              0 V3000
M  V30 BEGIN CTAB
M  V30 COUNTS 35 38 0 0 0
M  V30 BEGIN ATOM
M  V30 1 S 5.1961 -0.75 0.0 0
M  V30 2 O 4.4461 -2.049 0.0 0
M  V30 3 O 5.9461 -2.049 0.0 0
M  V30 4 N 3.8971 0.0 0.0 0
M  V30 5 C 6.4951 0.0 0.0 0
M  V30 6 C 2.598 -0.75 0.0 0
M  V30 7 C 7.7942 -0.75 0.0 0
M  V30 8 C 6.4951 1.5 0.0 0
M  V30 9 S 2.598 -2.25 0.0 0
M  V30 10 N 1.299 0.0 0.0 0
M  V30 11 C 9.0932 0.0 0.0 0
M  V30 12 C 7.7942 2.25 0.0 0
M  V30 13 C 0.0 -0.75 0.0 0
M  V30 14 C 9.0932 1.5 0.0 0
M  V30 15 C -1.299 0.0 0.0 0
M  V30 16 C 0.0 -2.25 0.0 0
M  V30 17 N 10.3923 2.25 0.0 0
M  V30 18 C -2.598 -0.75 0.0 0
M  V30 19 C -1.299 -3.0 0.0 0
M  V30 20 C 10.3923 3.75 0.0 0
M  V30 21 C -2.598 -2.25 0.0 0
M  V30 22 O 9.0932 4.5 0.0 0
M  V30 23 C 11.6913 4.5 0.0 0
M  V30 24 N 11.6913 6.0 0.0 0
M  V30 25 C 12.9903 6.75 0.0 0
M  V30 26 C 10.3923 6.75 0.0 0
M  V30 27 O 14.2894 6.0 0.0 0
M  V30 28 C 12.9903 8.25 0.0 0
M  V30 29 C 10.3923 8.25 0.0 0
M  V30 30 C 9.0932 6.0 0.0 0
M  V30 31 N 11.6913 9.0 0.0 0
M  V30 32 C 14.2894 9.0 0.0 0
M  V30 33 C 9.0932 9.0 0.0 0
M  V30 34 C 7.7942 6.75 0.0 0
M  V30 35 C 7.7942 8.25 0.0 0
M  V30 END ATOM
M  V30 BEGIN BOND
M  V30 1 2 1 2
M  V30 2 2 1 3
M  V30 3 1 1 4
M  V30 4 1 1 5
M  V30 5 1 4 6
M  V30 6 2 5 7
M  V30 7 1 5 8
M  V30 8 2 6 9
M  V30 9 1 6 10
M  V30 10 1 7 11
M  V30 11 2 8 12
M  V30 12 1 10 13
M  V30 13 2 11 14
M  V30 14 1 13 15
M  V30 15 1 13 16
M  V30 16 1 14 17
M  V30 17 1 15 18
M  V30 18 1 16 19
M  V30 19 1 17 20
M  V30 20 1 18 21
M  V30 21 2 20 22
M  V30 22 1 20 23
M  V30 23 1 23 24
M  V30 24 1 24 25
M  V30 25 1 24 26
M  V30 26 2 25 27
M  V30 27 1 25 28
M  V30 28 2 26 29
M  V30 29 1 26 30
M  V30 30 2 28 31
M  V30 31 1 28 32
M  V30 32 1 29 33
M  V30 33 2 30 34
M  V30 34 2 33 35
M  V30 35 1 12 14
M  V30 36 1 19 21
M  V30 37 1 29 31
M  V30 38 1 34 35
M  V30 END BOND
M  V30 END CTAB
M  END
>  <Molecule ChEMBL ID>
CHEMBL3915254

>  <Smiles>
Cc1nc2ccccc2n(CC(=O)Nc2ccc(S(=O)(=O)NC(=S)NC3CCCCC3)cc2)c1=O

>  <IC50_nM>
350

>  <Assay Description>
Displacement of fluormone-PPARgamma Green from recombinant human N-terminal GST-tagged PPARgamma-LBD by fluorescence polarization assay

$$$$
CHEMBL3678143
Actelion Java MolfileCreator 2.0

  0  0  0  0  0  0              0 V3000
M  V30 BEGIN CTAB
M  V30 COUNTS 39 43 0 0 0
M  V30 BEGIN ATOM
M  V30 1 Cl 6.0621 -2.0 0.0 0
M  V30 2 C 6.9282 -1.5 0.0 0
M  V30 3 C 7.7942 -2.0 0.0 0
M  V30 4 C 6.9282 -0.5 0.0 0
M  V30 5 O 7.7942 -3.0 0.0 0
M  V30 6 C 8.6602 -1.5 0.0 0
M  V30 7 C 7.7942 0.0 0.0 0
M  V30 8 C 6.0621 0.0 0.0 0
M  V30 9 C 8.6602 -3.5 0.0 0 CFG=2
M  V30 10 C 8.6602 -0.5 0.0 0
M  V30 11 N 6.0621 0.9999 0.0 0
M  V30 12 C 8.6602 -4.5 0.0 0
M  V30 13 C 9.5262 -3.0 0.0 0
M  V30 14 C 6.8711 1.5877 0.0 0
M  V30 15 C 5.2531 1.5877 0.0 0
M  V30 16 O 7.7942 -5.0 0.0 0
M  V30 17 O 9.5262 -5.0 0.0 0
M  V30 18 C 6.5621 2.5388 0.0 0
M  V30 19 C 7.8493 1.3798 0.0 0
M  V30 20 C 5.5621 2.5388 0.0 0
M  V30 21 C 4.3021 1.2787 0.0 0
M  V30 22 C 7.2313 3.2819 0.0 0
M  V30 23 C 8.5184 2.123 0.0 0
M  V30 24 C 4.9743 3.3478 0.0 0
M  V30 25 C 8.2094 3.074 0.0 0
M  V30 26 C 8.8785 3.8172 0.0 0
M  V30 27 O 9.8567 3.6093 0.0 0
M  V30 28 N 8.5695 4.7682 0.0 0
M  V30 29 C 9.2387 5.5114 0.0 0 CFG=2
M  V30 30 C 10.2168 5.3035 0.0 0
M  V30 31 C 8.9296 6.4624 0.0 0
M  V30 32 C 10.5258 4.3524 0.0 0
M  V30 33 C 10.8859 6.0466 0.0 0
M  V30 34 C 11.504 4.1445 0.0 0
M  V30 35 C 11.8641 5.8387 0.0 0
M  V30 36 C 12.1731 4.8876 0.0 0
M  V30 37 C 11.813 3.1934 0.0 0
M  V30 38 C 11.6051 2.2153 0.0 0
M  V30 39 C 12.5561 2.5243 0.0 0
M  V30 END ATOM
M  V30 BEGIN BOND
M  V30 1 1 1 2
M  V30 2 2 2 3
M  V30 3 1 2 4
M  V30 4 1 3 5
M  V30 5 1 3 6
M  V30 6 2 4 7
M  V30 7 1 4 8
M  V30 8 1 5 9
M  V30 9 2 6 10
M  V30 10 1 8 11
M  V30 11 1 9 12
M  V30 12 1 9 13 CFG=1
M  V30 13 1 11 14
M  V30 14 1 11 15
M  V30 15 2 12 16
M  V30 16 1 12 17
M  V30 17 2 14 18
M  V30 18 1 14 19
M  V30 19 2 15 20
M  V30 20 1 15 21
M  V30 21 1 18 22
M  V30 22 2 19 23
M  V30 23 1 20 24
M  V30 24 2 22 25
M  V30 25 1 25 26
M  V30 26 2 26 27
M  V30 27 1 26 28
M  V30 28 1 28 29
M  V30 29 1 29 30
M  V30 30 1 29 31 CFG=1
M  V30 31 2 30 32
M  V30 32 1 30 33
M  V30 33 1 32 34
M  V30 34 2 33 35
M  V30 35 2 34 36
M  V30 36 1 34 37
M  V30 37 1 37 38
M  V30 38 1 37 39
M  V30 39 1 7 10
M  V30 40 1 18 20
M  V30 41 1 23 25
M  V30 42 1 35 36
M  V30 43 1 38 39
M  V30 END BOND
M  V30 BEGIN COLLECTION
M  V30 MDLV30/STEABS ATOMS=(2 9 29)
M  V30 END COLLECTION
M  V30 END CTAB
M  END
>  <Molecule ChEMBL ID>
CHEMBL3678143

>  <Smiles>
Cc1c(C)n(Cc2cccc(O[C@@H](C)C(=O)O)c2Cl)c2ccc(C(=O)N[C@@H](C)c3cccc(C4CC4)c3)cc12

>  <IC50_nM>
351

>  <Assay Description>
Lanthascreen Competitive Binding Assay: The assay was performed according to manufacturer protocol. A mixture of 5 nM GST-PPARG-LBD, 5 nM Tb-GST-antibody, 5 nM Fluormone Pan- PPAR Green, and serial dilutions of the experimental compound, beginning at 10 ׬� downwards, was added to wells of black 384-well low- volume plates (Greiner) to a total volume of 18 xL. All dilutions were made in TR-FRET assay buffer C. DMSO at 2% final concentration was used as a no-ligand control. Experiment was performed in triplicate, and incubated for 2 hours in the dark prior to assay read in Perkin Elmer ViewLux ultra HTS microplate reader. FRET signal was measured by excitation at 340 nm and emission at 520 nm for fluorescein and 490 nm for terbium.

$$$$
CHEMBL3699411
Actelion Java MolfileCreator 2.0

  0  0  0  0  0  0              0 V3000
M  V30 BEGIN CTAB
M  V30 COUNTS 41 46 0 0 0
M  V30 BEGIN ATOM
M  V30 1 O 11.8592 -3.5669 0.0 0
M  V30 2 C 10.8811 -3.7748 0.0 0
M  V30 3 O 10.212 -3.0316 0.0 0
M  V30 4 C 10.5721 -4.7258 0.0 0
M  V30 5 C 9.5939 -4.9337 0.0 0
M  V30 6 C 11.2412 -5.469 0.0 0
M  V30 7 C 8.9248 -4.1906 0.0 0
M  V30 8 C 9.2849 -5.8848 0.0 0
M  V30 9 C 10.9322 -6.42 0.0 0
M  V30 10 C 9.2338 -3.2395 0.0 0
M  V30 11 C 7.9466 -4.3985 0.0 0
M  V30 12 C 9.954 -6.6279 0.0 0
M  V30 13 C 8.5647 -2.4964 0.0 0
M  V30 14 C 7.2775 -3.6554 0.0 0
M  V30 15 C 7.5865 -2.7043 0.0 0
M  V30 16 C 6.9174 -1.9612 0.0 0
M  V30 17 N 5.9392 -2.1691 0.0 0
M  V30 18 C 5.1961 -1.4999 0.0 0
M  V30 19 C 5.5325 -3.0826 0.0 0
M  V30 20 C 4.3301 -1.9999 0.0 0
M  V30 21 C 5.1961 -0.4999 0.0 0
M  V30 22 C 4.538 -2.9781 0.0 0
M  V30 23 C 6.0325 -3.9487 0.0 0
M  V30 24 C 3.4641 -1.5 0.0 0
M  V30 25 C 4.3301 0.0 0.0 0
M  V30 26 C 3.8689 -3.7212 0.0 0
M  V30 27 C 3.4641 -0.5 0.0 0
M  V30 28 C 2.598 0.0 0.0 0
M  V30 29 O 2.598 1.0 0.0 0
M  V30 30 N 1.732 -0.5 0.0 0
M  V30 31 C 0.866 0.0 0.0 0 CFG=2
M  V30 32 C 0.866 1.0 0.0 0
M  V30 33 C 0.0 -0.5 0.0 0
M  V30 34 C 1.732 1.4999 0.0 0
M  V30 35 C 0.0 1.4999 0.0 0
M  V30 36 C 1.732 2.5 0.0 0
M  V30 37 C 0.0 2.5 0.0 0
M  V30 38 N 0.866 3.0 0.0 0
M  V30 39 C 2.598 3.0 0.0 0
M  V30 40 C 3.598 3.0 0.0 0
M  V30 41 C 3.098 3.866 0.0 0
M  V30 END ATOM
M  V30 BEGIN BOND
M  V30 1 2 1 2
M  V30 2 1 2 3
M  V30 3 1 2 4
M  V30 4 2 4 5
M  V30 5 1 4 6
M  V30 6 1 5 7
M  V30 7 1 5 8
M  V30 8 2 6 9
M  V30 9 2 7 10
M  V30 10 1 7 11
M  V30 11 2 8 12
M  V30 12 1 10 13
M  V30 13 2 11 14
M  V30 14 2 13 15
M  V30 15 1 15 16
M  V30 16 1 16 17
M  V30 17 1 17 18
M  V30 18 1 17 19
M  V30 19 2 18 20
M  V30 20 1 18 21
M  V30 21 2 19 22
M  V30 22 1 19 23
M  V30 23 1 20 24
M  V30 24 2 21 25
M  V30 25 1 22 26
M  V30 26 2 24 27
M  V30 27 1 27 28
M  V30 28 2 28 29
M  V30 29 1 28 30
M  V30 30 1 30 31
M  V30 31 1 31 32
M  V30 32 1 31 33 CFG=1
M  V30 33 2 32 34
M  V30 34 1 32 35
M  V30 35 1 34 36
M  V30 36 2 35 37
M  V30 37 2 36 38
M  V30 38 1 36 39
M  V30 39 1 39 40
M  V30 40 1 39 41
M  V30 41 1 9 12
M  V30 42 1 14 15
M  V30 43 1 20 22
M  V30 44 1 25 27
M  V30 45 1 37 38
M  V30 46 1 40 41
M  V30 END BOND
M  V30 BEGIN COLLECTION
M  V30 MDLV30/STEABS ATOMS=(1 31)
M  V30 END COLLECTION
M  V30 END CTAB
M  END
>  <Molecule ChEMBL ID>
CHEMBL3699411

>  <Smiles>
Cc1c(C)n(Cc2ccc(-c3ccccc3C(=O)O)cc2)c2ccc(C(=O)N[C@@H](C)c3ccnc(C4CC4)c3)cc12

>  <IC50_nM>
352

>  <Assay Description>
Lanthascreen Competitive Binding Assay: The assay was performed according to manufacturer protocol. A mixture of nM GST-PPARG-LBD, 5 nM Tb-GST-antibody, 5 nM Fluormone Pan-PPAR Green, and serial dilutions of the experimental compound, beginning at 10 ׬M downwards, was added to wells of black 384-well low-volume plates (Greiner) to a total volume of 18 ׬L. All dilutions were made in TR-FRET assay buffer C. DMSO at 2% final concentration was used as a no-ligand control. Experiment was performed in triplicate, and incubated for 2 hours in the dark prior to assay read in Perkin Elmer ViewLux ultra HTS microplate reader. FRET signal was measured by excitation at 340 nm and emission at 520 nm for fluorescein and 490 nm for terbium. Fold change over DMSO was calculated using GraphPad Prism Software (La Jolla, Calif.) by calculating 520 nm/490 nm ratio. Graphs were plotted as fold change of FRET signal for compound treatment over DMSO-only control.

$$$$
CHEMBL4104828
Actelion Java MolfileCreator 2.0

  0  0  0  0  0  0              0 V3000
M  V30 BEGIN CTAB
M  V30 COUNTS 36 39 0 0 0
M  V30 BEGIN ATOM
M  V30 1 Br 20.7846 2.25 0.0 0
M  V30 2 C 19.4855 1.5 0.0 0
M  V30 3 C 18.1865 2.25 0.0 0
M  V30 4 C 19.4855 0.0 0.0 0
M  V30 5 C 16.8875 1.5 0.0 0
M  V30 6 C 18.1865 -0.75 0.0 0
M  V30 7 C 15.5884 2.25 0.0 0
M  V30 8 C 16.8875 0.0 0.0 0
M  V30 9 O 15.5884 3.75 0.0 0
M  V30 10 N 14.2894 1.5 0.0 0
M  V30 11 N 15.5884 -0.75 0.0 0
M  V30 12 C 14.2894 0.0 0.0 0
M  V30 13 C 12.9903 2.25 0.0 0
M  V30 14 C 12.9903 -0.75 0.0 0
M  V30 15 C 11.6913 1.5 0.0 0
M  V30 16 O 11.6913 0.0 0.0 0
M  V30 17 N 10.3923 2.25 0.0 0
M  V30 18 C 9.0932 1.5 0.0 0
M  V30 19 C 7.7942 2.25 0.0 0
M  V30 20 C 9.0932 0.0 0.0 0
M  V30 21 C 6.4951 1.5 0.0 0
M  V30 22 C 7.7942 -0.75 0.0 0
M  V30 23 C 6.4951 0.0 0.0 0
M  V30 24 S 5.1961 -0.75 0.0 0
M  V30 25 O 4.4461 -2.049 0.0 0
M  V30 26 O 5.9461 -2.049 0.0 0
M  V30 27 N 3.8971 0.0 0.0 0
M  V30 28 C 2.598 -0.75 0.0 0
M  V30 29 O 2.598 -2.25 0.0 0
M  V30 30 N 1.299 0.0 0.0 0
M  V30 31 C 0.0 -0.75 0.0 0
M  V30 32 C -1.299 0.0 0.0 0
M  V30 33 C 0.0 -2.25 0.0 0
M  V30 34 C -2.598 -0.75 0.0 0
M  V30 35 C -1.299 -3.0 0.0 0
M  V30 36 C -2.598 -2.25 0.0 0
M  V30 END ATOM
M  V30 BEGIN BOND
M  V30 1 1 1 2
M  V30 2 2 2 3
M  V30 3 1 2 4
M  V30 4 1 3 5
M  V30 5 2 4 6
M  V30 6 1 5 7
M  V30 7 2 5 8
M  V30 8 2 7 9
M  V30 9 1 7 10
M  V30 10 1 8 11
M  V30 11 1 10 12
M  V30 12 1 10 13
M  V30 13 1 12 14
M  V30 14 1 13 15
M  V30 15 2 15 16
M  V30 16 1 15 17
M  V30 17 1 17 18
M  V30 18 2 18 19
M  V30 19 1 18 20
M  V30 20 1 19 21
M  V30 21 2 20 22
M  V30 22 2 21 23
M  V30 23 1 23 24
M  V30 24 2 24 25
M  V30 25 2 24 26
M  V30 26 1 24 27
M  V30 27 1 27 28
M  V30 28 2 28 29
M  V30 29 1 28 30
M  V30 30 1 30 31
M  V30 31 1 31 32
M  V30 32 1 31 33
M  V30 33 1 32 34
M  V30 34 1 33 35
M  V30 35 1 34 36
M  V30 36 1 6 8
M  V30 37 2 11 12
M  V30 38 1 22 23
M  V30 39 1 35 36
M  V30 END BOND
M  V30 END CTAB
M  END
>  <Molecule ChEMBL ID>
CHEMBL4104828

>  <Smiles>
Cc1nc2ccc(Br)cc2c(=O)n1CC(=O)Nc1ccc(S(=O)(=O)NC(=O)NC2CCCCC2)cc1

>  <IC50_nM>
353

>  <Assay Description>
Displacement of fluormone-PPARgamma green from GST-tagged PPARgamma-LBD (unknown origin) by fluorescence polarization assay

$$$$
CHEMBL3678117
Actelion Java MolfileCreator 2.0

  0  0  0  0  0  0              0 V3000
M  V30 BEGIN CTAB
M  V30 COUNTS 39 42 0 0 0
M  V30 BEGIN ATOM
M  V30 1 O 17.1679 -0.319 0.0 0
M  V30 2 C 16.1642 0.7957 0.0 0
M  V30 3 N 16.6278 2.2222 0.0 0
M  V30 4 C 14.697 0.4838 0.0 0
M  V30 5 C 15.6241 3.337 0.0 0 CFG=2
M  V30 6 C 14.2335 -0.9427 0.0 0
M  V30 7 C 13.6933 1.5985 0.0 0
M  V30 8 C 16.0876 4.7635 0.0 0
M  V30 9 C 14.1568 3.0251 0.0 0
M  V30 10 C 12.7663 -1.2546 0.0 0
M  V30 11 C 12.2261 1.2866 0.0 0
M  V30 12 C 17.5548 5.0754 0.0 0
M  V30 13 C 15.0839 5.8783 0.0 0
M  V30 14 C 11.7626 -0.1398 0.0 0
M  V30 15 C 12.0163 -2.5536 0.0 0
M  V30 16 C 18.0183 6.502 0.0 0
M  V30 17 C 15.5474 7.3048 0.0 0
M  V30 18 N 10.3923 -0.75 0.0 0
M  V30 19 C 10.549 -2.2417 0.0 0
M  V30 20 C 12.6264 -3.9239 0.0 0
M  V30 21 C 17.0146 7.6167 0.0 0
M  V30 22 C 9.0932 0.0 0.0 0
M  V30 23 C 9.4343 -3.2454 0.0 0
M  V30 24 C 17.4782 9.0433 0.0 0
M  V30 25 C 7.7942 -0.75 0.0 0
M  V30 26 C 16.0516 9.5068 0.0 0
M  V30 27 C 17.9417 10.4699 0.0 0
M  V30 28 C 18.9048 8.5798 0.0 0
M  V30 29 C 6.4951 0.0 0.0 0
M  V30 30 C 7.7942 -2.25 0.0 0
M  V30 31 C 5.1961 -0.75 0.0 0
M  V30 32 C 6.4951 -3.0 0.0 0
M  V30 33 O 3.8971 0.0 0.0 0
M  V30 34 C 5.1961 -2.25 0.0 0
M  V30 35 C 2.598 -0.75 0.0 0 CFG=2
M  V30 36 C 1.299 0.0 0.0 0
M  V30 37 C 2.598 -2.25 0.0 0
M  V30 38 O 1.299 1.5 0.0 0
M  V30 39 O 0.0 -0.75 0.0 0
M  V30 END ATOM
M  V30 BEGIN BOND
M  V30 1 2 1 2
M  V30 2 1 2 3
M  V30 3 1 2 4
M  V30 4 1 3 5
M  V30 5 2 4 6
M  V30 6 1 4 7
M  V30 7 1 5 8
M  V30 8 1 5 9 CFG=1
M  V30 9 1 6 10
M  V30 10 2 7 11
M  V30 11 2 8 12
M  V30 12 1 8 13
M  V30 13 2 10 14
M  V30 14 1 10 15
M  V30 15 1 12 16
M  V30 16 2 13 17
M  V30 17 1 14 18
M  V30 18 2 15 19
M  V30 19 1 15 20
M  V30 20 2 16 21
M  V30 21 1 18 22
M  V30 22 1 19 23
M  V30 23 1 21 24
M  V30 24 1 22 25
M  V30 25 1 24 26
M  V30 26 1 24 27
M  V30 27 1 24 28
M  V30 28 2 25 29
M  V30 29 1 25 30
M  V30 30 1 29 31
M  V30 31 2 30 32
M  V30 32 1 31 33
M  V30 33 2 31 34
M  V30 34 1 33 35
M  V30 35 1 35 36
M  V30 36 1 35 37 CFG=1
M  V30 37 2 36 38
M  V30 38 1 36 39
M  V30 39 1 11 14
M  V30 40 1 17 21
M  V30 41 1 18 19
M  V30 42 1 32 34
M  V30 END BOND
M  V30 BEGIN COLLECTION
M  V30 MDLV30/STEABS ATOMS=(2 5 35)
M  V30 END COLLECTION
M  V30 END CTAB
M  END
>  <Molecule ChEMBL ID>
CHEMBL3678117

>  <Smiles>
Cc1c(C)n(Cc2cccc(O[C@@H](C)C(=O)O)c2)c2ccc(C(=O)N[C@@H](C)c3ccc(C(C)(C)C)cc3)cc12

>  <IC50_nM>
358

>  <Assay Description>
Lanthascreen Competitive Binding Assay: The assay was performed according to manufacturer protocol. A mixture of 5 nM GST-PPARG-LBD, 5 nM Tb-GST-antibody, 5 nM Fluormone Pan- PPAR Green, and serial dilutions of the experimental compound, beginning at 10 ׬� downwards, was added to wells of black 384-well low- volume plates (Greiner) to a total volume of 18 xL. All dilutions were made in TR-FRET assay buffer C. DMSO at 2% final concentration was used as a no-ligand control. Experiment was performed in triplicate, and incubated for 2 hours in the dark prior to assay read in Perkin Elmer ViewLux ultra HTS microplate reader. FRET signal was measured by excitation at 340 nm and emission at 520 nm for fluorescein and 490 nm for terbium.

$$$$
CHEMBL255388
Actelion Java MolfileCreator 2.0

  0  0  0  0  0  0              0 V3000
M  V30 BEGIN CTAB
M  V30 COUNTS 37 41 0 0 0
M  V30 BEGIN ATOM
M  V30 1 Cl 11.617 -3.2071 0.0 0
M  V30 2 C 10.751 -2.7071 0.0 0
M  V30 3 C 10.751 -1.7071 0.0 0
M  V30 4 C 9.8849 -3.2071 0.0 0
M  V30 5 C 9.8849 -1.2071 0.0 0
M  V30 6 C 9.0189 -2.7071 0.0 0
M  V30 7 C 9.0189 -1.7071 0.0 0
M  V30 8 N 8.1529 -1.2071 0.0 0
M  V30 9 C 7.8941 -0.2411 0.0 0
M  V30 10 C 7.187 -1.4659 0.0 0
M  V30 11 O 8.3941 0.6248 0.0 0
M  V30 12 C 6.9282 -0.5 0.0 0
M  V30 13 C 6.687 -2.3319 0.0 0
M  V30 14 C 6.0621 0.0 0.0 0
M  V30 15 O 5.687 -2.3319 0.0 0
M  V30 16 O 7.187 -3.1979 0.0 0
M  V30 17 C 5.1961 -0.5 0.0 0
M  V30 18 C 4.3301 0.0 0.0 0
M  V30 19 C 5.1961 -1.4999 0.0 0
M  V30 20 C 3.4641 -0.5 0.0 0
M  V30 21 C 4.3301 -1.9999 0.0 0
M  V30 22 O 2.598 0.0 0.0 0
M  V30 23 C 3.4641 -1.4999 0.0 0
M  V30 24 C 1.732 -0.5 0.0 0
M  V30 25 C 0.866 0.0 0.0 0
M  V30 26 C 0.0 -0.5 0.0 0
M  V30 27 N -0.9135 -0.0932 0.0 0
M  V30 28 C -0.1045 -1.4945 0.0 0
M  V30 29 C -1.5826 -0.8364 0.0 0
M  V30 30 O -1.0826 -1.7024 0.0 0
M  V30 31 C 0.6386 -2.1636 0.0 0
M  V30 32 C -2.5771 -0.7318 0.0 0
M  V30 33 C -2.9839 0.1816 0.0 0
M  V30 34 C -3.1649 -1.5408 0.0 0
M  V30 35 C -3.9784 0.2861 0.0 0
M  V30 36 C -4.1595 -1.4363 0.0 0
M  V30 37 C -4.5662 -0.5228 0.0 0
M  V30 END ATOM
M  V30 BEGIN BOND
M  V30 1 1 1 2
M  V30 2 2 2 3
M  V30 3 1 2 4
M  V30 4 1 3 5
M  V30 5 2 4 6
M  V30 6 2 5 7
M  V30 7 1 7 8
M  V30 8 1 8 9
M  V30 9 1 8 10
M  V30 10 2 9 11
M  V30 11 1 9 12
M  V30 12 1 10 13
M  V30 13 1 12 14
M  V30 14 2 13 15
M  V30 15 1 13 16
M  V30 16 1 14 17
M  V30 17 2 17 18
M  V30 18 1 17 19
M  V30 19 1 18 20
M  V30 20 2 19 21
M  V30 21 1 20 22
M  V30 22 2 20 23
M  V30 23 1 22 24
M  V30 24 1 24 25
M  V30 25 1 25 26
M  V30 26 1 26 27
M  V30 27 2 26 28
M  V30 28 2 27 29
M  V30 29 1 28 30
M  V30 30 1 28 31
M  V30 31 1 29 32
M  V30 32 2 32 33
M  V30 33 1 32 34
M  V30 34 1 33 35
M  V30 35 2 34 36
M  V30 36 2 35 37
M  V30 37 1 6 7
M  V30 38 1 10 12
M  V30 39 1 21 23
M  V30 40 1 29 30
M  V30 41 1 36 37
M  V30 END BOND
M  V30 END CTAB
M  END
>  <Molecule ChEMBL ID>
CHEMBL255388

>  <Smiles>
Cc1oc(-c2ccccc2)nc1CCOc1cccc(CC2C(=O)N(c3ccc(Cl)cc3)C2C(=O)O)c1

>  <IC50_nM>
360

>  <Assay Description>
Inhibition of PPARgamma

$$$$
CHEMBL4069917
Actelion Java MolfileCreator 2.0

  0  0  0  0  0  0              0 V3000
M  V30 BEGIN CTAB
M  V30 COUNTS 41 44 0 0 0
M  V30 BEGIN ATOM
M  V30 1 S 9.0932 0.0 0.0 0
M  V30 2 O 9.8432 1.299 0.0 0
M  V30 3 O 8.3432 1.299 0.0 0
M  V30 4 N 7.7942 -0.75 0.0 0
M  V30 5 C 10.3923 -0.75 0.0 0
M  V30 6 C 6.4951 0.0 0.0 0
M  V30 7 C 10.3923 -2.25 0.0 0
M  V30 8 C 11.6913 0.0 0.0 0
M  V30 9 O 6.4951 1.5 0.0 0
M  V30 10 N 5.1961 -0.75 0.0 0
M  V30 11 C 11.6913 -3.0 0.0 0
M  V30 12 C 12.9903 -0.75 0.0 0
M  V30 13 C 3.8971 0.0 0.0 0
M  V30 14 C 12.9903 -2.25 0.0 0
M  V30 15 C 2.598 -0.75 0.0 0
M  V30 16 N 14.2894 -3.0 0.0 0
M  V30 17 C 1.299 0.0 0.0 0
M  V30 18 C 14.2894 -4.5 0.0 0
M  V30 19 C 0.0 -0.75 0.0 0
M  V30 20 O 12.9903 -5.25 0.0 0
M  V30 21 C 15.5884 -5.25 0.0 0
M  V30 22 S 15.5884 -6.75 0.0 0
M  V30 23 C 16.8875 -7.5 0.0 0
M  V30 24 N 16.8875 -9.0 0.0 0
M  V30 25 N 18.1865 -6.75 0.0 0
M  V30 26 C 18.1865 -9.75 0.0 0
M  V30 27 C 19.4855 -7.5 0.0 0
M  V30 28 C 18.1865 -5.25 0.0 0
M  V30 29 C 19.4855 -9.0 0.0 0
M  V30 30 C 18.1865 -11.25 0.0 0
M  V30 31 O 20.7846 -6.75 0.0 0
M  V30 32 C 19.4855 -4.5 0.0 0
M  V30 33 C 16.8875 -4.5 0.0 0
M  V30 34 C 20.7846 -9.75 0.0 0
M  V30 35 C 19.4855 -12.0 0.0 0
M  V30 36 C 19.4855 -3.0 0.0 0
M  V30 37 C 16.8875 -3.0 0.0 0
M  V30 38 C 20.7846 -11.25 0.0 0
M  V30 39 C 18.1865 -2.25 0.0 0
M  V30 40 O 18.1865 -0.75 0.0 0
M  V30 41 C 16.8875 0.0 0.0 0
M  V30 END ATOM
M  V30 BEGIN BOND
M  V30 1 2 1 2
M  V30 2 2 1 3
M  V30 3 1 1 4
M  V30 4 1 1 5
M  V30 5 1 4 6
M  V30 6 2 5 7
M  V30 7 1 5 8
M  V30 8 2 6 9
M  V30 9 1 6 10
M  V30 10 1 7 11
M  V30 11 2 8 12
M  V30 12 1 10 13
M  V30 13 2 11 14
M  V30 14 1 13 15
M  V30 15 1 14 16
M  V30 16 1 15 17
M  V30 17 1 16 18
M  V30 18 1 17 19
M  V30 19 2 18 20
M  V30 20 1 18 21
M  V30 21 1 21 22
M  V30 22 1 22 23
M  V30 23 2 23 24
M  V30 24 1 23 25
M  V30 25 1 24 26
M  V30 26 1 25 27
M  V30 27 1 25 28
M  V30 28 2 26 29
M  V30 29 1 26 30
M  V30 30 2 27 31
M  V30 31 2 28 32
M  V30 32 1 28 33
M  V30 33 1 29 34
M  V30 34 2 30 35
M  V30 35 1 32 36
M  V30 36 2 33 37
M  V30 37 2 34 38
M  V30 38 2 36 39
M  V30 39 1 39 40
M  V30 40 1 40 41
M  V30 41 1 12 14
M  V30 42 1 27 29
M  V30 43 1 35 38
M  V30 44 1 37 39
M  V30 END BOND
M  V30 END CTAB
M  END
>  <Molecule ChEMBL ID>
CHEMBL4069917

>  <Smiles>
CCCCNC(=O)NS(=O)(=O)c1ccc(NC(=O)CSc2nc3ccccc3c(=O)n2-c2ccc(OC)cc2)cc1

>  <IC50_nM>
369

>  <Assay Description>
Displacement of fluormone-PPARgamma green from GST-tagged PPARgamma-LBD (unknown origin) by fluorescence polarization assay

$$$$
CHEMBL3943220
Actelion Java MolfileCreator 2.0

  0  0  0  0  0  0              0 V3000
M  V30 BEGIN CTAB
M  V30 COUNTS 33 35 0 0 0
M  V30 BEGIN ATOM
M  V30 1 S 9.0932 0.0 0.0 0
M  V30 2 O 9.8432 1.299 0.0 0
M  V30 3 O 8.3432 1.299 0.0 0
M  V30 4 N 7.7942 -0.75 0.0 0
M  V30 5 C 10.3923 -0.75 0.0 0
M  V30 6 C 6.4951 0.0 0.0 0
M  V30 7 C 10.3923 -2.25 0.0 0
M  V30 8 C 11.6913 0.0 0.0 0
M  V30 9 S 6.4951 1.5 0.0 0
M  V30 10 N 5.1961 -0.75 0.0 0
M  V30 11 C 11.6913 -3.0 0.0 0
M  V30 12 C 12.9903 -0.75 0.0 0
M  V30 13 C 3.8971 0.0 0.0 0
M  V30 14 C 12.9903 -2.25 0.0 0
M  V30 15 C 2.598 -0.75 0.0 0
M  V30 16 N 14.2894 -3.0 0.0 0
M  V30 17 C 1.299 0.0 0.0 0
M  V30 18 C 15.5884 -2.25 0.0 0
M  V30 19 C 0.0 -0.75 0.0 0
M  V30 20 O 15.5884 -0.75 0.0 0
M  V30 21 C 16.8875 -3.0 0.0 0
M  V30 22 N 18.1865 -2.25 0.0 0
M  V30 23 C 19.4855 -3.0 0.0 0
M  V30 24 C 18.1865 -0.75 0.0 0
M  V30 25 O 19.4855 -4.5 0.0 0
M  V30 26 C 20.7846 -2.25 0.0 0
M  V30 27 C 19.4855 0.0 0.0 0
M  V30 28 C 16.8875 0.0 0.0 0
M  V30 29 N 20.7846 -0.75 0.0 0
M  V30 30 C 22.0836 -3.0 0.0 0
M  V30 31 C 19.4855 1.5 0.0 0
M  V30 32 C 16.8875 1.5 0.0 0
M  V30 33 C 18.1865 2.25 0.0 0
M  V30 END ATOM
M  V30 BEGIN BOND
M  V30 1 2 1 2
M  V30 2 2 1 3
M  V30 3 1 1 4
M  V30 4 1 1 5
M  V30 5 1 4 6
M  V30 6 2 5 7
M  V30 7 1 5 8
M  V30 8 2 6 9
M  V30 9 1 6 10
M  V30 10 1 7 11
M  V30 11 2 8 12
M  V30 12 1 10 13
M  V30 13 2 11 14
M  V30 14 1 13 15
M  V30 15 1 14 16
M  V30 16 1 15 17
M  V30 17 1 16 18
M  V30 18 1 17 19
M  V30 19 2 18 20
M  V30 20 1 18 21
M  V30 21 1 21 22
M  V30 22 1 22 23
M  V30 23 1 22 24
M  V30 24 2 23 25
M  V30 25 1 23 26
M  V30 26 2 24 27
M  V30 27 1 24 28
M  V30 28 2 26 29
M  V30 29 1 26 30
M  V30 30 1 27 31
M  V30 31 2 28 32
M  V30 32 2 31 33
M  V30 33 1 12 14
M  V30 34 1 27 29
M  V30 35 1 32 33
M  V30 END BOND
M  V30 END CTAB
M  END
>  <Molecule ChEMBL ID>
CHEMBL3943220

>  <Smiles>
CCCCNC(=S)NS(=O)(=O)c1ccc(NC(=O)Cn2c(=O)c(C)nc3ccccc32)cc1

>  <IC50_nM>
369

>  <Assay Description>
Displacement of fluormone-PPARgamma Green from recombinant human N-terminal GST-tagged PPARgamma-LBD by fluorescence polarization assay

$$$$
CHEMBL113324
Actelion Java MolfileCreator 2.0

  0  0  0  0  0  0              0 V3000
M  V30 BEGIN CTAB
M  V30 COUNTS 40 43 0 0 0
M  V30 BEGIN ATOM
M  V30 1 S 7.7942 -6.0 0.0 0
M  V30 2 O 6.7942 -6.0 0.0 0
M  V30 3 O 8.7942 -6.0 0.0 0
M  V30 4 C 7.7942 -5.0 0.0 0
M  V30 5 C 7.7942 -7.0 0.0 0
M  V30 6 C 8.6602 -4.5 0.0 0
M  V30 7 C 6.9282 -4.5 0.0 0
M  V30 8 C 8.6602 -3.5 0.0 0
M  V30 9 C 6.9282 -3.5 0.0 0
M  V30 10 C 7.7942 -3.0 0.0 0
M  V30 11 O 7.7942 -2.0 0.0 0
M  V30 12 C 6.9282 -1.5 0.0 0
M  V30 13 C 6.9282 -0.5 0.0 0
M  V30 14 C 6.0621 -2.0 0.0 0
M  V30 15 C 6.0621 0.0 0.0 0
M  V30 16 C 5.1961 -1.5 0.0 0
M  V30 17 C 5.1961 -0.5 0.0 0
M  V30 18 C 6.0621 0.9999 0.0 0
M  V30 19 O 4.3301 0.0 0.0 0
M  V30 20 C 6.9282 1.4999 0.0 0
M  V30 21 C 3.4641 -0.5 0.0 0
M  V30 22 C 6.9282 2.4999 0.0 0
M  V30 23 C 2.598 0.0 0.0 0
M  V30 24 C 1.732 -0.5 0.0 0
M  V30 25 O 0.866 0.0 0.0 0
M  V30 26 C 0.0 -0.5 0.0 0
M  V30 27 C -0.866 0.0 0.0 0
M  V30 28 C 0.0 -1.4999 0.0 0
M  V30 29 C -1.732 -0.4999 0.0 0
M  V30 30 C -0.866 -1.9999 0.0 0
M  V30 31 O -2.598 0.0 0.0 0
M  V30 32 C -1.732 -1.4999 0.0 0
M  V30 33 C -3.4641 -0.4999 0.0 0 CFG=2
M  V30 34 C -2.598 -1.9999 0.0 0
M  V30 35 C -3.4641 0.5 0.0 0
M  V30 36 C -3.4641 -1.4999 0.0 0
M  V30 37 C -4.3301 0.0 0.0 0
M  V30 38 O -4.3301 1.0 0.0 0
M  V30 39 O -2.598 1.0 0.0 0
M  V30 40 C -5.1961 -0.4999 0.0 0
M  V30 END ATOM
M  V30 BEGIN BOND
M  V30 1 2 1 2
M  V30 2 2 1 3
M  V30 3 1 1 4
M  V30 4 1 1 5
M  V30 5 2 4 6
M  V30 6 1 4 7
M  V30 7 1 6 8
M  V30 8 2 7 9
M  V30 9 2 8 10
M  V30 10 1 10 11
M  V30 11 1 11 12
M  V30 12 2 12 13
M  V30 13 1 12 14
M  V30 14 1 13 15
M  V30 15 2 14 16
M  V30 16 2 15 17
M  V30 17 1 15 18
M  V30 18 1 17 19
M  V30 19 1 18 20
M  V30 20 1 19 21
M  V30 21 1 20 22
M  V30 22 1 21 23
M  V30 23 1 23 24
M  V30 24 1 24 25
M  V30 25 1 25 26
M  V30 26 2 26 27
M  V30 27 1 26 28
M  V30 28 1 27 29
M  V30 29 2 28 30
M  V30 30 1 29 31
M  V30 31 2 29 32
M  V30 32 1 31 33
M  V30 33 1 32 34
M  V30 34 1 33 35 CFG=1
M  V30 35 1 33 36
M  V30 36 1 33 37
M  V30 37 2 35 38
M  V30 38 1 35 39
M  V30 39 1 37 40
M  V30 40 1 9 10
M  V30 41 1 16 17
M  V30 42 1 30 32
M  V30 43 1 34 36
M  V30 END BOND
M  V30 BEGIN COLLECTION
M  V30 MDLV30/STERAC1 ATOMS=(1 33)
M  V30 END COLLECTION
M  V30 END CTAB
M  END
>  <Molecule ChEMBL ID>
CHEMBL113324

>  <Smiles>
CCCc1cc(Oc2ccc(S(C)(=O)=O)cc2)ccc1OCCCOc1ccc2c(c1)OC(CC)(C(=O)O)CC2

>  <IC50_nM>
370

>  <Assay Description>
In vitro binding affinity for human PPAR gamma receptor using scintillation proximity assay (SPA)

$$$$
CHEMBL419756
Actelion Java MolfileCreator 2.0

  0  0  0  0  0  0              0 V3000
M  V30 BEGIN CTAB
M  V30 COUNTS 37 40 0 0 0
M  V30 BEGIN ATOM
M  V30 1 O 14.2894 1.4999 0.0 0
M  V30 2 C 12.9903 0.75 0.0 0
M  V30 3 O 11.6913 1.5 0.0 0
M  V30 4 C 12.9903 -0.75 0.0 0 CFG=1
M  V30 5 O 11.6913 0.0 0.0 0
M  V30 6 C 12.9903 -2.25 0.0 0
M  V30 7 C 14.2894 0.0 0.0 0
M  V30 8 C 10.3923 -0.75 0.0 0
M  V30 9 C 11.6913 -3.0 0.0 0
M  V30 10 C 15.5884 -0.7499 0.0 0
M  V30 11 C 10.3923 -2.25 0.0 0
M  V30 12 C 9.0932 0.0 0.0 0
M  V30 13 C 16.8874 0.0 0.0 0
M  V30 14 C 9.0932 -3.0 0.0 0
M  V30 15 C 7.7942 -0.75 0.0 0
M  V30 16 C 7.7942 -2.25 0.0 0
M  V30 17 O 6.4951 0.0 0.0 0
M  V30 18 C 5.1961 -0.75 0.0 0
M  V30 19 C 3.8971 0.0 0.0 0
M  V30 20 C 2.598 -0.75 0.0 0
M  V30 21 O 1.299 0.0 0.0 0
M  V30 22 C 0.0 -0.75 0.0 0
M  V30 23 C -1.299 0.0 0.0 0
M  V30 24 C 0.0 -2.25 0.0 0
M  V30 25 C -2.598 -0.7499 0.0 0
M  V30 26 C -1.299 1.5 0.0 0
M  V30 27 C -1.299 -2.9999 0.0 0
M  V30 28 C -2.598 -2.2499 0.0 0
M  V30 29 C 0.0 2.25 0.0 0
M  V30 30 O -3.8971 -2.9999 0.0 0
M  V30 31 C 0.0 3.75 0.0 0
M  V30 32 C -3.8971 -4.4999 0.0 0
M  V30 33 C -5.1961 -5.2499 0.0 0
M  V30 34 C -2.598 -5.2499 0.0 0
M  V30 35 C -5.1961 -6.7499 0.0 0
M  V30 36 C -2.598 -6.7499 0.0 0
M  V30 37 C -3.8971 -7.4999 0.0 0
M  V30 END ATOM
M  V30 BEGIN BOND
M  V30 1 2 1 2
M  V30 2 1 2 3
M  V30 3 1 4 2 CFG=3
M  V30 4 1 4 5
M  V30 5 1 4 6
M  V30 6 1 4 7
M  V30 7 1 5 8
M  V30 8 1 6 9
M  V30 9 1 7 10
M  V30 10 2 8 11
M  V30 11 1 8 12
M  V30 12 1 10 13
M  V30 13 1 11 14
M  V30 14 2 12 15
M  V30 15 2 14 16
M  V30 16 1 15 17
M  V30 17 1 17 18
M  V30 18 1 18 19
M  V30 19 1 19 20
M  V30 20 1 20 21
M  V30 21 1 21 22
M  V30 22 2 22 23
M  V30 23 1 22 24
M  V30 24 1 23 25
M  V30 25 1 23 26
M  V30 26 2 24 27
M  V30 27 2 25 28
M  V30 28 1 26 29
M  V30 29 1 28 30
M  V30 30 1 29 31
M  V30 31 1 30 32
M  V30 32 2 32 33
M  V30 33 1 32 34
M  V30 34 1 33 35
M  V30 35 2 34 36
M  V30 36 2 35 37
M  V30 37 1 9 11
M  V30 38 1 15 16
M  V30 39 1 27 28
M  V30 40 1 36 37
M  V30 END BOND
M  V30 BEGIN COLLECTION
M  V30 MDLV30/STERAC1 ATOMS=(1 4)
M  V30 END COLLECTION
M  V30 END CTAB
M  END
>  <Molecule ChEMBL ID>
CHEMBL419756

>  <Smiles>
CCCc1cc(Oc2ccccc2)ccc1OCCCOc1ccc2c(c1)OC(CCC)(C(=O)O)CC2

>  <IC50_nM>
370

>  <Assay Description>
In vitro binding affinity for human peroxisome proliferator activated receptor gamma using scintillation proximity assay (SPA)

$$$$
CHEMBL3678110
Actelion Java MolfileCreator 2.0

  0  0  0  0  0  0              0 V3000
M  V30 BEGIN CTAB
M  V30 COUNTS 38 41 0 0 0
M  V30 BEGIN ATOM
M  V30 1 O 8.5695 -6.7682 0.0 0
M  V30 2 C 8.8785 -5.8172 0.0 0
M  V30 3 N 9.8567 -5.6093 0.0 0
M  V30 4 C 8.2094 -5.074 0.0 0
M  V30 5 C 10.1657 -4.6582 0.0 0 CFG=2
M  V30 6 C 7.2313 -5.2819 0.0 0
M  V30 7 C 8.5184 -4.123 0.0 0
M  V30 8 C 11.1438 -4.4503 0.0 0
M  V30 9 C 9.4966 -3.9151 0.0 0
M  V30 10 C 6.5621 -4.5388 0.0 0
M  V30 11 C 7.8493 -3.3798 0.0 0
M  V30 12 C 11.813 -5.1934 0.0 0
M  V30 13 C 11.4529 -3.4992 0.0 0
M  V30 14 C 6.8711 -3.5877 0.0 0
M  V30 15 C 5.5621 -4.5388 0.0 0
M  V30 16 C 12.7911 -4.9855 0.0 0
M  V30 17 C 12.431 -3.2913 0.0 0
M  V30 18 N 6.0621 -3.0 0.0 0
M  V30 19 C 5.2531 -3.5877 0.0 0
M  V30 20 C 4.9743 -5.3478 0.0 0
M  V30 21 C 13.1001 -4.0345 0.0 0
M  V30 22 C 6.0621 -1.9999 0.0 0
M  V30 23 C 4.3021 -3.2787 0.0 0
M  V30 24 C 14.0783 -3.8266 0.0 0
M  V30 25 C 5.1961 -1.4999 0.0 0
M  V30 26 C 13.8704 -2.8484 0.0 0
M  V30 27 C 15.0564 -3.6186 0.0 0
M  V30 28 C 14.2862 -4.8047 0.0 0
M  V30 29 C 5.1961 -0.5 0.0 0
M  V30 30 C 4.3301 -1.9999 0.0 0
M  V30 31 C 4.3301 0.0 0.0 0
M  V30 32 C 3.4641 -1.5 0.0 0
M  V30 33 C 3.4641 -0.5 0.0 0
M  V30 34 O 2.598 0.0 0.0 0
M  V30 35 C 1.732 -0.5 0.0 0
M  V30 36 C 0.866 0.0 0.0 0
M  V30 37 O 0.866 1.0 0.0 0
M  V30 38 O 0.0 -0.5 0.0 0
M  V30 END ATOM
M  V30 BEGIN BOND
M  V30 1 2 1 2
M  V30 2 1 2 3
M  V30 3 1 2 4
M  V30 4 1 3 5
M  V30 5 2 4 6
M  V30 6 1 4 7
M  V30 7 1 5 8
M  V30 8 1 5 9 CFG=1
M  V30 9 1 6 10
M  V30 10 2 7 11
M  V30 11 2 8 12
M  V30 12 1 8 13
M  V30 13 2 10 14
M  V30 14 1 10 15
M  V30 15 1 12 16
M  V30 16 2 13 17
M  V30 17 1 14 18
M  V30 18 2 15 19
M  V30 19 1 15 20
M  V30 20 2 16 21
M  V30 21 1 18 22
M  V30 22 1 19 23
M  V30 23 1 21 24
M  V30 24 1 22 25
M  V30 25 1 24 26
M  V30 26 1 24 27
M  V30 27 1 24 28
M  V30 28 2 25 29
M  V30 29 1 25 30
M  V30 30 1 29 31
M  V30 31 2 30 32
M  V30 32 2 31 33
M  V30 33 1 33 34
M  V30 34 1 34 35
M  V30 35 1 35 36
M  V30 36 2 36 37
M  V30 37 1 36 38
M  V30 38 1 11 14
M  V30 39 1 17 21
M  V30 40 1 18 19
M  V30 41 1 32 33
M  V30 END BOND
M  V30 BEGIN COLLECTION
M  V30 MDLV30/STEABS ATOMS=(1 5)
M  V30 END COLLECTION
M  V30 END CTAB
M  END
>  <Molecule ChEMBL ID>
CHEMBL3678110

>  <Smiles>
Cc1c(C)n(Cc2ccc(OCC(=O)O)cc2)c2ccc(C(=O)N[C@@H](C)c3ccc(C(C)(C)C)cc3)cc12

>  <IC50_nM>
370

>  <Assay Description>
Lanthascreen Competitive Binding Assay: The assay was performed according to manufacturer protocol. A mixture of 5 nM GST-PPARG-LBD, 5 nM Tb-GST-antibody, 5 nM Fluormone Pan- PPAR Green, and serial dilutions of the experimental compound, beginning at 10 ׬� downwards, was added to wells of black 384-well low- volume plates (Greiner) to a total volume of 18 xL. All dilutions were made in TR-FRET assay buffer C. DMSO at 2% final concentration was used as a no-ligand control. Experiment was performed in triplicate, and incubated for 2 hours in the dark prior to assay read in Perkin Elmer ViewLux ultra HTS microplate reader. FRET signal was measured by excitation at 340 nm and emission at 520 nm for fluorescein and 490 nm for terbium.

$$$$
CHEMBL408
Actelion Java MolfileCreator 2.0

  0  0  0  0  0  0              0 V3000
M  V30 BEGIN CTAB
M  V30 COUNTS 31 34 0 0 0
M  V30 BEGIN ATOM
M  V30 1 S 6.1667 0.0054 0.0 0
M  V30 2 C 7.1448 -0.2024 0.0 0
M  V30 3 C 6.0621 1.0 0.0 0
M  V30 4 O 7.5515 -1.1159 0.0 0
M  V30 5 N 7.6448 0.6635 0.0 0
M  V30 6 C 6.9757 1.4067 0.0 0
M  V30 7 C 5.1961 1.5 0.0 0
M  V30 8 O 7.1836 2.3848 0.0 0
M  V30 9 C 4.3301 1.0 0.0 0
M  V30 10 C 3.4641 1.5 0.0 0
M  V30 11 C 4.3301 0.0 0.0 0
M  V30 12 C 2.598 0.9999 0.0 0
M  V30 13 C 3.4641 -0.4999 0.0 0
M  V30 14 C 2.598 0.0 0.0 0
M  V30 15 O 1.732 -0.5 0.0 0
M  V30 16 C 0.866 0.0 0.0 0
M  V30 17 C 0.0 -0.5 0.0 0
M  V30 18 O -0.866 0.0 0.0 0
M  V30 19 C 0.0 -1.4999 0.0 0
M  V30 20 C 0.866 -1.0 0.0 0
M  V30 21 C -1.732 -0.4999 0.0 0
M  V30 22 C -0.866 -1.9999 0.0 0
M  V30 23 C -1.732 -1.4999 0.0 0
M  V30 24 C -2.598 0.0 0.0 0
M  V30 25 C -2.598 -1.9999 0.0 0
M  V30 26 C -3.4641 -0.4999 0.0 0
M  V30 27 C -2.598 1.0 0.0 0
M  V30 28 C -3.4641 -1.4999 0.0 0
M  V30 29 C -2.598 -2.9999 0.0 0
M  V30 30 C -4.3301 0.0 0.0 0
M  V30 31 O -4.3301 -1.9999 0.0 0
M  V30 END ATOM
M  V30 BEGIN BOND
M  V30 1 1 1 2
M  V30 2 1 1 3
M  V30 3 2 2 4
M  V30 4 1 2 5
M  V30 5 1 3 6
M  V30 6 1 3 7
M  V30 7 2 6 8
M  V30 8 1 7 9
M  V30 9 2 9 10
M  V30 10 1 9 11
M  V30 11 1 10 12
M  V30 12 2 11 13
M  V30 13 2 12 14
M  V30 14 1 14 15
M  V30 15 1 15 16
M  V30 16 1 16 17
M  V30 17 1 17 18
M  V30 18 1 17 19
M  V30 19 1 17 20
M  V30 20 1 18 21
M  V30 21 1 19 22
M  V30 22 2 21 23
M  V30 23 1 21 24
M  V30 24 1 23 25
M  V30 25 2 24 26
M  V30 26 1 24 27
M  V30 27 2 25 28
M  V30 28 1 25 29
M  V30 29 1 26 30
M  V30 30 1 28 31
M  V30 31 1 5 6
M  V30 32 1 13 14
M  V30 33 1 22 23
M  V30 34 1 26 28
M  V30 END BOND
M  V30 END CTAB
M  END
>  <Molecule ChEMBL ID>
CHEMBL408

>  <Smiles>
Cc1c(C)c2c(c(C)c1O)CCC(C)(COc1ccc(CC3SC(=O)NC3=O)cc1)O2

>  <IC50_nM>
370

>  <Assay Description>
Competitive displacement of fluorescently labelled PPAR tracer ligand from GST-tagged human PPARgamma ligand binding domain after 1 hr in dark by TR-FRET competitive binding assay

$$$$
CHEMBL4072706
Actelion Java MolfileCreator 2.0

  0  0  0  0  0  0              0 V3000
M  V30 BEGIN CTAB
M  V30 COUNTS 42 46 0 0 0
M  V30 BEGIN ATOM
M  V30 1 S 5.1961 -0.75 0.0 0
M  V30 2 O 4.4461 -2.049 0.0 0
M  V30 3 O 5.9461 -2.049 0.0 0
M  V30 4 N 3.8971 0.0 0.0 0
M  V30 5 C 6.4951 0.0 0.0 0
M  V30 6 C 2.598 -0.75 0.0 0
M  V30 7 C 7.7942 -0.75 0.0 0
M  V30 8 C 6.4951 1.5 0.0 0
M  V30 9 O 2.598 -2.25 0.0 0
M  V30 10 N 1.299 0.0 0.0 0
M  V30 11 C 9.0932 0.0 0.0 0
M  V30 12 C 7.7942 2.25 0.0 0
M  V30 13 C 0.0 -0.75 0.0 0
M  V30 14 C 9.0932 1.5 0.0 0
M  V30 15 C -1.299 0.0 0.0 0
M  V30 16 C 0.0 -2.25 0.0 0
M  V30 17 N 10.3923 2.25 0.0 0
M  V30 18 C -2.598 -0.75 0.0 0
M  V30 19 C -1.299 -3.0 0.0 0
M  V30 20 C 11.6913 1.5 0.0 0
M  V30 21 C -2.598 -2.25 0.0 0
M  V30 22 O 11.6913 0.0 0.0 0
M  V30 23 C 12.9903 2.25 0.0 0
M  V30 24 S 14.2894 1.5 0.0 0
M  V30 25 C 15.5884 2.25 0.0 0
M  V30 26 N 16.8875 1.5 0.0 0
M  V30 27 N 15.5884 3.75 0.0 0
M  V30 28 C 18.1865 2.25 0.0 0
M  V30 29 C 16.8875 4.5 0.0 0
M  V30 30 C 14.2894 4.5 0.0 0
M  V30 31 C 18.1865 3.75 0.0 0
M  V30 32 C 19.4855 1.5 0.0 0
M  V30 33 O 16.8875 6.0 0.0 0
M  V30 34 C 14.2894 6.0 0.0 0
M  V30 35 C 12.9903 3.75 0.0 0
M  V30 36 C 19.4855 4.5 0.0 0
M  V30 37 C 20.7846 2.25 0.0 0
M  V30 38 C 12.9903 6.75 0.0 0
M  V30 39 C 11.6913 4.5 0.0 0
M  V30 40 C 20.7846 3.75 0.0 0
M  V30 41 C 11.6913 6.0 0.0 0
M  V30 42 C 10.3923 6.75 0.0 0
M  V30 END ATOM
M  V30 BEGIN BOND
M  V30 1 2 1 2
M  V30 2 2 1 3
M  V30 3 1 1 4
M  V30 4 1 1 5
M  V30 5 1 4 6
M  V30 6 2 5 7
M  V30 7 1 5 8
M  V30 8 2 6 9
M  V30 9 1 6 10
M  V30 10 1 7 11
M  V30 11 2 8 12
M  V30 12 1 10 13
M  V30 13 2 11 14
M  V30 14 2 13 15
M  V30 15 1 13 16
M  V30 16 1 14 17
M  V30 17 1 15 18
M  V30 18 2 16 19
M  V30 19 1 17 20
M  V30 20 2 18 21
M  V30 21 2 20 22
M  V30 22 1 20 23
M  V30 23 1 23 24
M  V30 24 1 24 25
M  V30 25 2 25 26
M  V30 26 1 25 27
M  V30 27 1 26 28
M  V30 28 1 27 29
M  V30 29 1 27 30
M  V30 30 2 28 31
M  V30 31 1 28 32
M  V30 32 2 29 33
M  V30 33 2 30 34
M  V30 34 1 30 35
M  V30 35 1 31 36
M  V30 36 2 32 37
M  V30 37 1 34 38
M  V30 38 2 35 39
M  V30 39 2 36 40
M  V30 40 2 38 41
M  V30 41 1 41 42
M  V30 42 1 12 14
M  V30 43 1 19 21
M  V30 44 1 29 31
M  V30 45 1 37 40
M  V30 46 1 39 41
M  V30 END BOND
M  V30 END CTAB
M  END
>  <Molecule ChEMBL ID>
CHEMBL4072706

>  <Smiles>
Cc1ccc(-n2c(SCC(=O)Nc3ccc(S(=O)(=O)NC(=O)Nc4ccccc4)cc3)nc3ccccc3c2=O)cc1

>  <IC50_nM>
371

>  <Assay Description>
Displacement of fluormone-PPARgamma green from GST-tagged PPARgamma-LBD (unknown origin) by fluorescence polarization assay

$$$$
CHEMBL214272
Actelion Java MolfileCreator 2.0

  0  0  0  0  0  0              0 V3000
M  V30 BEGIN CTAB
M  V30 COUNTS 31 34 0 0 0
M  V30 BEGIN ATOM
M  V30 1 F 13.5637 0.6719 0.0 0
M  V30 2 C 12.6502 1.0786 0.0 0
M  V30 3 C 12.5456 2.0731 0.0 0
M  V30 4 C 11.8411 0.4908 0.0 0
M  V30 5 C 11.6321 2.4799 0.0 0
M  V30 6 C 10.9276 0.8975 0.0 0
M  V30 7 C 10.8231 1.8921 0.0 0
M  V30 8 C 9.9095 2.2988 0.0 0
M  V30 9 O 9.7016 3.277 0.0 0
M  V30 10 N 9.0435 1.7988 0.0 0
M  V30 11 C 8.7071 3.3815 0.0 0
M  V30 12 C 8.3003 2.4679 0.0 0
M  V30 13 C 8.2071 4.2475 0.0 0
M  V30 14 C 7.3222 2.26 0.0 0
M  V30 15 N 7.0132 1.309 0.0 0
M  V30 16 C 6.0621 0.9999 0.0 0
M  V30 17 C 7.601 0.5 0.0 0
M  V30 18 C 6.0621 0.0 0.0 0
M  V30 19 C 5.1961 1.4999 0.0 0
M  V30 20 C 7.0132 -0.309 0.0 0
M  V30 21 C 5.1961 -0.5 0.0 0
M  V30 22 C 4.3301 0.9999 0.0 0
M  V30 23 C 4.3301 0.0 0.0 0
M  V30 24 C 3.4641 -0.5 0.0 0
M  V30 25 C 2.598 0.0 0.0 0 CFG=2
M  V30 26 O 1.732 -0.5 0.0 0
M  V30 27 C 2.598 1.0 0.0 0
M  V30 28 C 0.866 0.0 0.0 0
M  V30 29 O 3.4641 1.4999 0.0 0
M  V30 30 O 1.732 1.5 0.0 0
M  V30 31 C 0.0 -0.5 0.0 0
M  V30 END ATOM
M  V30 BEGIN BOND
M  V30 1 1 1 2
M  V30 2 2 2 3
M  V30 3 1 2 4
M  V30 4 1 3 5
M  V30 5 2 4 6
M  V30 6 2 5 7
M  V30 7 1 7 8
M  V30 8 1 8 9
M  V30 9 2 8 10
M  V30 10 1 9 11
M  V30 11 1 10 12
M  V30 12 1 11 13
M  V30 13 1 12 14
M  V30 14 1 14 15
M  V30 15 1 15 16
M  V30 16 1 15 17
M  V30 17 2 16 18
M  V30 18 1 16 19
M  V30 19 2 17 20
M  V30 20 1 18 21
M  V30 21 2 19 22
M  V30 22 2 21 23
M  V30 23 1 23 24
M  V30 24 1 24 25
M  V30 25 1 25 26 CFG=3
M  V30 26 1 25 27
M  V30 27 1 26 28
M  V30 28 2 27 29
M  V30 29 1 27 30
M  V30 30 1 28 31
M  V30 31 1 6 7
M  V30 32 2 11 12
M  V30 33 1 18 20
M  V30 34 1 22 23
M  V30 END BOND
M  V30 BEGIN COLLECTION
M  V30 MDLV30/STERAC1 ATOMS=(1 25)
M  V30 END COLLECTION
M  V30 END CTAB
M  END
>  <Molecule ChEMBL ID>
CHEMBL214272

>  <Smiles>
CCOC(Cc1ccc2c(ccn2Cc2nc(-c3ccc(F)cc3)oc2C)c1)C(=O)O

>  <IC50_nM>
377

>  <Assay Description>
Binding affinity to PPARgamma by radio ligand binding assay

$$$$
CHEMBL374705
Actelion Java MolfileCreator 2.0

  0  0  0  0  0  0              0 V3000
M  V30 BEGIN CTAB
M  V30 COUNTS 34 37 0 0 0
M  V30 BEGIN ATOM
M  V30 1 Cl 2.0087 -5.2528 0.0 0
M  V30 2 C 3.4353 -5.7164 0.0 0
M  V30 3 C 4.5501 -4.7127 0.0 0
M  V30 4 C 3.7472 -7.1836 0.0 0
M  V30 5 C 5.9766 -5.1762 0.0 0
M  V30 6 C 4.2382 -3.2454 0.0 0
M  V30 7 C 5.1738 -7.6471 0.0 0
M  V30 8 C 6.2885 -6.6434 0.0 0
M  V30 9 N 5.3529 -2.2417 0.0 0
M  V30 10 Cl 7.7151 -7.1069 0.0 0
M  V30 11 C 6.8201 -2.5536 0.0 0
M  V30 12 C 5.1961 -0.75 0.0 0
M  V30 13 C 7.5701 -1.2546 0.0 0
M  V30 14 C 7.5701 -3.8526 0.0 0
M  V30 15 C 3.8971 0.0 0.0 0
M  V30 16 C 6.5664 -0.1398 0.0 0
M  V30 17 C 9.0701 -1.2546 0.0 0
M  V30 18 C 9.0701 -3.8526 0.0 0
M  V30 19 O 2.598 -0.75 0.0 0
M  V30 20 N 3.8971 1.5 0.0 0
M  V30 21 C 9.8201 -2.5536 0.0 0
M  V30 22 S 2.598 2.25 0.0 0
M  V30 23 O 1.8481 0.9509 0.0 0
M  V30 24 O 1.0981 2.25 0.0 0
M  V30 25 C 2.598 3.75 0.0 0
M  V30 26 C 1.299 4.5 0.0 0
M  V30 27 C 3.8971 4.5 0.0 0
M  V30 28 C 1.299 6.0 0.0 0
M  V30 29 C 3.8971 6.0 0.0 0
M  V30 30 C 2.598 6.75 0.0 0
M  V30 31 C 0.0 6.75 0.0 0
M  V30 32 F 0.75 8.049 0.0 0
M  V30 33 F -1.299 7.5 0.0 0
M  V30 34 F -0.75 5.4509 0.0 0
M  V30 END ATOM
M  V30 BEGIN BOND
M  V30 1 1 1 2
M  V30 2 2 2 3
M  V30 3 1 2 4
M  V30 4 1 3 5
M  V30 5 1 3 6
M  V30 6 2 4 7
M  V30 7 2 5 8
M  V30 8 1 6 9
M  V30 9 1 8 10
M  V30 10 1 9 11
M  V30 11 1 9 12
M  V30 12 2 11 13
M  V30 13 1 11 14
M  V30 14 1 12 15
M  V30 15 2 12 16
M  V30 16 1 13 17
M  V30 17 2 14 18
M  V30 18 2 15 19
M  V30 19 1 15 20
M  V30 20 2 17 21
M  V30 21 1 20 22
M  V30 22 2 22 23
M  V30 23 2 22 24
M  V30 24 1 22 25
M  V30 25 2 25 26
M  V30 26 1 25 27
M  V30 27 1 26 28
M  V30 28 2 27 29
M  V30 29 2 28 30
M  V30 30 1 28 31
M  V30 31 1 31 32
M  V30 32 1 31 33
M  V30 33 1 31 34
M  V30 34 1 7 8
M  V30 35 1 13 16
M  V30 36 1 18 21
M  V30 37 1 29 30
M  V30 END BOND
M  V30 END CTAB
M  END
>  <Molecule ChEMBL ID>
CHEMBL374705

>  <Smiles>
O=C(NS(=O)(=O)c1cccc(C(F)(F)F)c1)c1cc2ccccc2n1Cc1cc(Cl)ccc1Cl

>  <IC50_nM>
380

>  <Assay Description>
Displacement of Fluormone from PPAR gamma

$$$$
CHEMBL513215
Actelion Java MolfileCreator 2.0

  0  0  0  0  0  0              0 V3000
M  V30 BEGIN CTAB
M  V30 COUNTS 25 27 0 0 0
M  V30 BEGIN ATOM
M  V30 1 S 3.8971 0.0 0.0 0
M  V30 2 O 4.6471 1.299 0.0 0
M  V30 3 O 3.1471 1.299 0.0 0
M  V30 4 O 5.1961 -0.75 0.0 0
M  V30 5 C 2.598 -0.75 0.0 0
M  V30 6 C 6.4952 0.0 0.0 0
M  V30 7 C 1.299 0.0 0.0 0
M  V30 8 C 7.7942 -0.75 0.0 0
M  V30 9 C 6.4952 1.5 0.0 0
M  V30 10 C 0.0 -0.75 0.0 0
M  V30 11 C 9.0932 0.0 0.0 0
M  V30 12 C 7.7942 2.25 0.0 0
M  V30 13 C -1.299 0.0 0.0 0
M  V30 14 C 0.0 -2.25 0.0 0
M  V30 15 O 10.3923 -0.75 0.0 0
M  V30 16 C 9.0932 1.5 0.0 0
M  V30 17 C -2.598 -0.75 0.0 0
M  V30 18 C -1.299 -3.0 0.0 0
M  V30 19 C 11.6913 0.0 0.0 0
M  V30 20 C -2.598 -2.25 0.0 0
M  V30 21 C 12.9904 -0.75 0.0 0
M  V30 22 C 11.6913 1.5 0.0 0
M  V30 23 C 14.2894 0.0 0.0 0
M  V30 24 C 12.9904 2.25 0.0 0
M  V30 25 C 14.2894 1.5 0.0 0
M  V30 END ATOM
M  V30 BEGIN BOND
M  V30 1 2 1 2
M  V30 2 2 1 3
M  V30 3 1 1 4
M  V30 4 1 1 5
M  V30 5 1 4 6
M  V30 6 2 5 7
M  V30 7 2 6 8
M  V30 8 1 6 9
M  V30 9 1 7 10
M  V30 10 1 8 11
M  V30 11 2 9 12
M  V30 12 2 10 13
M  V30 13 1 10 14
M  V30 14 1 11 15
M  V30 15 2 11 16
M  V30 16 1 13 17
M  V30 17 2 14 18
M  V30 18 1 15 19
M  V30 19 2 17 20
M  V30 20 2 19 21
M  V30 21 1 19 22
M  V30 22 1 21 23
M  V30 23 2 22 24
M  V30 24 2 23 25
M  V30 25 1 12 16
M  V30 26 1 18 20
M  V30 27 1 24 25
M  V30 END BOND
M  V30 END CTAB
M  END
>  <Molecule ChEMBL ID>
CHEMBL513215

>  <Smiles>
O=S(=O)(/C=C/c1ccccc1)Oc1cccc(Oc2ccccc2)c1

>  <IC50_nM>
382

>  <Assay Description>
Displacement of [3H]BRL49653 from PPARgamma ligand binding domain by scintillation proximity assay

$$$$
CHEMBL1092931
Actelion Java MolfileCreator 2.0

  0  0  0  0  0  0              0 V3000
M  V30 BEGIN CTAB
M  V30 COUNTS 37 40 0 0 0
M  V30 BEGIN ATOM
M  V30 1 Cl 6.0582 10.4839 0.0 0
M  V30 2 C 6.4649 9.5704 0.0 0
M  V30 3 C 5.8772 8.7614 0.0 0
M  V30 4 C 7.4595 9.4658 0.0 0
M  V30 5 C 6.2839 7.8478 0.0 0
M  V30 6 C 7.8662 8.5523 0.0 0
M  V30 7 C 5.6961 7.0388 0.0 0
M  V30 8 C 7.2784 7.7433 0.0 0
M  V30 9 O 4.6961 7.0388 0.0 0
M  V30 10 N 6.0051 6.0877 0.0 0
M  V30 11 C 4.3871 6.0877 0.0 0
M  V30 12 C 5.1961 5.5 0.0 0
M  V30 13 C 3.436 5.7787 0.0 0
M  V30 14 C 5.1961 4.5 0.0 0
M  V30 15 O 4.3301 4.0 0.0 0
M  V30 16 C 4.3301 3.0 0.0 0
M  V30 17 C 3.4641 2.5 0.0 0
M  V30 18 C 5.1961 2.5 0.0 0
M  V30 19 C 3.4641 1.5 0.0 0
M  V30 20 C 5.1961 1.5 0.0 0
M  V30 21 C 4.3301 1.0 0.0 0
M  V30 22 C 2.598 1.0 0.0 0
M  V30 23 N 2.598 0.0 0.0 0
M  V30 24 C 3.4641 -0.5 0.0 0
M  V30 25 C 1.732 -0.5 0.0 0
M  V30 26 O 3.4641 -1.5 0.0 0
M  V30 27 O 4.3301 0.0 0.0 0
M  V30 28 C 0.866 0.0 0.0 0
M  V30 29 C 5.1961 -0.5 0.0 0
M  V30 30 O 0.866 1.0 0.0 0
M  V30 31 O 0.0 -0.5 0.0 0
M  V30 32 C 5.1961 -1.5 0.0 0
M  V30 33 C 6.0621 0.0 0.0 0
M  V30 34 C 6.0621 -2.0 0.0 0
M  V30 35 C 6.9282 -0.5 0.0 0
M  V30 36 C 6.9282 -1.5 0.0 0
M  V30 37 C 7.7942 -2.0 0.0 0
M  V30 END ATOM
M  V30 BEGIN BOND
M  V30 1 1 1 2
M  V30 2 2 2 3
M  V30 3 1 2 4
M  V30 4 1 3 5
M  V30 5 2 4 6
M  V30 6 1 5 7
M  V30 7 2 5 8
M  V30 8 1 7 9
M  V30 9 2 7 10
M  V30 10 1 9 11
M  V30 11 1 10 12
M  V30 12 1 11 13
M  V30 13 1 12 14
M  V30 14 1 14 15
M  V30 15 1 15 16
M  V30 16 2 16 17
M  V30 17 1 16 18
M  V30 18 1 17 19
M  V30 19 2 18 20
M  V30 20 2 19 21
M  V30 21 1 19 22
M  V30 22 1 22 23
M  V30 23 1 23 24
M  V30 24 1 23 25
M  V30 25 2 24 26
M  V30 26 1 24 27
M  V30 27 1 25 28
M  V30 28 1 27 29
M  V30 29 2 28 30
M  V30 30 1 28 31
M  V30 31 2 29 32
M  V30 32 1 29 33
M  V30 33 1 32 34
M  V30 34 2 33 35
M  V30 35 2 34 36
M  V30 36 1 36 37
M  V30 37 1 6 8
M  V30 38 2 11 12
M  V30 39 1 20 21
M  V30 40 1 35 36
M  V30 END BOND
M  V30 END CTAB
M  END
>  <Molecule ChEMBL ID>
CHEMBL1092931

>  <Smiles>
Cc1ccc(OC(=O)N(CC(=O)O)Cc2cccc(OCc3nc(-c4cccc(Cl)c4)oc3C)c2)cc1

>  <IC50_nM>
384

>  <Assay Description>
Binding affinity to human His-tagged PPARgamma LBD (Q203-Y477) expressed in Escherichia coli BL21 (DE3) by fluorescence polarization assay

$$$$
CHEMBL412371
Actelion Java MolfileCreator 2.0

  0  0  0  0  0  0              0 V3000
M  V30 BEGIN CTAB
M  V30 COUNTS 34 37 0 0 0
M  V30 BEGIN ATOM
M  V30 1 O 5.1961 -4.5 0.0 0
M  V30 2 C 5.1961 -3.4999 0.0 0
M  V30 3 O 4.3301 -2.9999 0.0 0
M  V30 4 C 6.0621 -3.0 0.0 0 CFG=2
M  V30 5 O 6.9282 -3.5 0.0 0
M  V30 6 C 6.0621 -1.9999 0.0 0
M  V30 7 C 6.0621 -4.0 0.0 0
M  V30 8 C 7.7942 -3.0 0.0 0
M  V30 9 C 5.1961 -1.4999 0.0 0
M  V30 10 C 7.7942 -2.0 0.0 0
M  V30 11 C 8.6602 -3.5 0.0 0
M  V30 12 C 5.1961 -0.5 0.0 0
M  V30 13 C 4.3301 -1.9999 0.0 0
M  V30 14 C 8.6602 -1.5 0.0 0
M  V30 15 C 9.5262 -3.0 0.0 0
M  V30 16 C 4.3301 0.0 0.0 0
M  V30 17 C 3.4641 -1.5 0.0 0
M  V30 18 C 9.5262 -2.0 0.0 0
M  V30 19 C 3.4641 -0.5 0.0 0
M  V30 20 O 2.598 0.0 0.0 0
M  V30 21 C 1.732 -0.5 0.0 0
M  V30 22 C 0.866 0.0 0.0 0
M  V30 23 C 0.0 -0.5 0.0 0
M  V30 24 N -0.9135 -0.0932 0.0 0
M  V30 25 C -0.1045 -1.4945 0.0 0
M  V30 26 C -1.5826 -0.8364 0.0 0
M  V30 27 O -1.0826 -1.7024 0.0 0
M  V30 28 C 0.6386 -2.1636 0.0 0
M  V30 29 C -2.5771 -0.7318 0.0 0
M  V30 30 C -2.9839 0.1816 0.0 0
M  V30 31 C -3.1649 -1.5408 0.0 0
M  V30 32 C -3.9784 0.2861 0.0 0
M  V30 33 C -4.1595 -1.4363 0.0 0
M  V30 34 C -4.5662 -0.5228 0.0 0
M  V30 END ATOM
M  V30 BEGIN BOND
M  V30 1 2 1 2
M  V30 2 1 2 3
M  V30 3 1 2 4
M  V30 4 1 4 5
M  V30 5 1 4 6
M  V30 6 1 4 7 CFG=3
M  V30 7 1 5 8
M  V30 8 1 6 9
M  V30 9 2 8 10
M  V30 10 1 8 11
M  V30 11 2 9 12
M  V30 12 1 9 13
M  V30 13 1 10 14
M  V30 14 2 11 15
M  V30 15 1 12 16
M  V30 16 2 13 17
M  V30 17 2 14 18
M  V30 18 2 16 19
M  V30 19 1 19 20
M  V30 20 1 20 21
M  V30 21 1 21 22
M  V30 22 1 22 23
M  V30 23 1 23 24
M  V30 24 2 23 25
M  V30 25 2 24 26
M  V30 26 1 25 27
M  V30 27 1 25 28
M  V30 28 1 26 29
M  V30 29 2 29 30
M  V30 30 1 29 31
M  V30 31 1 30 32
M  V30 32 2 31 33
M  V30 33 2 32 34
M  V30 34 1 15 18
M  V30 35 1 17 19
M  V30 36 1 26 27
M  V30 37 1 33 34
M  V30 END BOND
M  V30 BEGIN COLLECTION
M  V30 MDLV30/STEABS ATOMS=(1 4)
M  V30 END COLLECTION
M  V30 END CTAB
M  END
>  <Molecule ChEMBL ID>
CHEMBL412371

>  <Smiles>
Cc1oc(-c2ccccc2)nc1CCOc1ccc(C[C@@](C)(Oc2ccccc2)C(=O)O)cc1

>  <IC50_nM>
388

>  <Assay Description>
Displacement of PPARgamma agonist from human PPAR gamma receptor

$$$$
CHEMBL412371
Actelion Java MolfileCreator 2.0

  0  0  0  0  0  0              0 V3000
M  V30 BEGIN CTAB
M  V30 COUNTS 34 37 0 0 0
M  V30 BEGIN ATOM
M  V30 1 O 5.1961 -4.5 0.0 0
M  V30 2 C 5.1961 -3.4999 0.0 0
M  V30 3 O 4.3301 -2.9999 0.0 0
M  V30 4 C 6.0621 -3.0 0.0 0 CFG=2
M  V30 5 O 6.9282 -3.5 0.0 0
M  V30 6 C 6.0621 -1.9999 0.0 0
M  V30 7 C 6.0621 -4.0 0.0 0
M  V30 8 C 7.7942 -3.0 0.0 0
M  V30 9 C 5.1961 -1.4999 0.0 0
M  V30 10 C 7.7942 -2.0 0.0 0
M  V30 11 C 8.6602 -3.5 0.0 0
M  V30 12 C 5.1961 -0.5 0.0 0
M  V30 13 C 4.3301 -1.9999 0.0 0
M  V30 14 C 8.6602 -1.5 0.0 0
M  V30 15 C 9.5262 -3.0 0.0 0
M  V30 16 C 4.3301 0.0 0.0 0
M  V30 17 C 3.4641 -1.5 0.0 0
M  V30 18 C 9.5262 -2.0 0.0 0
M  V30 19 C 3.4641 -0.5 0.0 0
M  V30 20 O 2.598 0.0 0.0 0
M  V30 21 C 1.732 -0.5 0.0 0
M  V30 22 C 0.866 0.0 0.0 0
M  V30 23 C 0.0 -0.5 0.0 0
M  V30 24 N -0.9135 -0.0932 0.0 0
M  V30 25 C -0.1045 -1.4945 0.0 0
M  V30 26 C -1.5826 -0.8364 0.0 0
M  V30 27 O -1.0826 -1.7024 0.0 0
M  V30 28 C 0.6386 -2.1636 0.0 0
M  V30 29 C -2.5771 -0.7318 0.0 0
M  V30 30 C -2.9839 0.1816 0.0 0
M  V30 31 C -3.1649 -1.5408 0.0 0
M  V30 32 C -3.9784 0.2861 0.0 0
M  V30 33 C -4.1595 -1.4363 0.0 0
M  V30 34 C -4.5662 -0.5228 0.0 0
M  V30 END ATOM
M  V30 BEGIN BOND
M  V30 1 2 1 2
M  V30 2 1 2 3
M  V30 3 1 2 4
M  V30 4 1 4 5
M  V30 5 1 4 6
M  V30 6 1 4 7 CFG=3
M  V30 7 1 5 8
M  V30 8 1 6 9
M  V30 9 2 8 10
M  V30 10 1 8 11
M  V30 11 2 9 12
M  V30 12 1 9 13
M  V30 13 1 10 14
M  V30 14 2 11 15
M  V30 15 1 12 16
M  V30 16 2 13 17
M  V30 17 2 14 18
M  V30 18 2 16 19
M  V30 19 1 19 20
M  V30 20 1 20 21
M  V30 21 1 21 22
M  V30 22 1 22 23
M  V30 23 1 23 24
M  V30 24 2 23 25
M  V30 25 2 24 26
M  V30 26 1 25 27
M  V30 27 1 25 28
M  V30 28 1 26 29
M  V30 29 2 29 30
M  V30 30 1 29 31
M  V30 31 1 30 32
M  V30 32 2 31 33
M  V30 33 2 32 34
M  V30 34 1 15 18
M  V30 35 1 17 19
M  V30 36 1 26 27
M  V30 37 1 33 34
M  V30 END BOND
M  V30 BEGIN COLLECTION
M  V30 MDLV30/STEABS ATOMS=(1 4)
M  V30 END COLLECTION
M  V30 END CTAB
M  END
>  <Molecule ChEMBL ID>
CHEMBL412371

>  <Smiles>
Cc1oc(-c2ccccc2)nc1CCOc1ccc(C[C@@](C)(Oc2ccccc2)C(=O)O)cc1

>  <IC50_nM>
388.15

>  <Assay Description>
Agonist activity at PPARgamma

$$$$
CHEMBL377898
Actelion Java MolfileCreator 2.0

  0  0  0  0  0  0              0 V3000
M  V30 BEGIN CTAB
M  V30 COUNTS 35 38 0 0 0
M  V30 BEGIN ATOM
M  V30 1 F 11.3893 -8.056 0.0 0
M  V30 2 C 10.3948 -8.1605 0.0 0
M  V30 3 F 10.4993 -9.1551 0.0 0
M  V30 4 F 9.4003 -8.2651 0.0 0
M  V30 5 C 10.2903 -7.166 0.0 0
M  V30 6 C 11.0993 -6.5782 0.0 0
M  V30 7 C 9.3767 -6.7593 0.0 0
M  V30 8 C 10.9948 -5.5837 0.0 0
M  V30 9 C 9.2722 -5.7648 0.0 0
M  V30 10 C 10.0812 -5.177 0.0 0
M  V30 11 C 9.9767 -4.1825 0.0 0
M  V30 12 O 10.7198 -3.5133 0.0 0
M  V30 13 N 9.1107 -3.6825 0.0 0
M  V30 14 C 10.3131 -2.5998 0.0 0
M  V30 15 C 9.3186 -2.7043 0.0 0
M  V30 16 C 10.8131 -1.7338 0.0 0
M  V30 17 C 8.6494 -1.9612 0.0 0
M  V30 18 N 7.6713 -2.1691 0.0 0
M  V30 19 C 6.9282 -1.4999 0.0 0
M  V30 20 C 7.2646 -3.0826 0.0 0
M  V30 21 C 6.0621 -2.0 0.0 0
M  V30 22 C 6.9282 -0.5 0.0 0
M  V30 23 C 6.27 -2.9781 0.0 0
M  V30 24 C 5.1961 -1.5 0.0 0
M  V30 25 C 6.0621 0.0 0.0 0
M  V30 26 C 5.1961 -0.5 0.0 0
M  V30 27 C 4.3301 0.0 0.0 0
M  V30 28 C 3.4641 -0.5 0.0 0 CFG=2
M  V30 29 O 2.598 0.0 0.0 0
M  V30 30 C 3.4641 -1.5 0.0 0
M  V30 31 C 1.732 -0.5 0.0 0
M  V30 32 O 2.598 -1.9999 0.0 0
M  V30 33 O 4.3301 -2.0 0.0 0
M  V30 34 C 0.866 0.0 0.0 0
M  V30 35 C 0.0 -0.5 0.0 0
M  V30 END ATOM
M  V30 BEGIN BOND
M  V30 1 1 1 2
M  V30 2 1 2 3
M  V30 3 1 2 4
M  V30 4 1 2 5
M  V30 5 2 5 6
M  V30 6 1 5 7
M  V30 7 1 6 8
M  V30 8 2 7 9
M  V30 9 2 8 10
M  V30 10 1 10 11
M  V30 11 1 11 12
M  V30 12 2 11 13
M  V30 13 1 12 14
M  V30 14 1 13 15
M  V30 15 1 14 16
M  V30 16 1 15 17
M  V30 17 1 17 18
M  V30 18 1 18 19
M  V30 19 1 18 20
M  V30 20 2 19 21
M  V30 21 1 19 22
M  V30 22 2 20 23
M  V30 23 1 21 24
M  V30 24 2 22 25
M  V30 25 2 24 26
M  V30 26 1 26 27
M  V30 27 1 27 28
M  V30 28 1 28 29 CFG=1
M  V30 29 1 28 30
M  V30 30 1 29 31
M  V30 31 2 30 32
M  V30 32 1 30 33
M  V30 33 1 31 34
M  V30 34 1 34 35
M  V30 35 1 9 10
M  V30 36 2 14 15
M  V30 37 1 21 23
M  V30 38 1 25 26
M  V30 END BOND
M  V30 BEGIN COLLECTION
M  V30 MDLV30/STERAC1 ATOMS=(1 28)
M  V30 END COLLECTION
M  V30 END CTAB
M  END
>  <Molecule ChEMBL ID>
CHEMBL377898

>  <Smiles>
CCCOC(Cc1ccc2c(ccn2Cc2nc(-c3ccc(C(F)(F)F)cc3)oc2C)c1)C(=O)O

>  <IC50_nM>
399

>  <Assay Description>
Binding affinity to PPARgamma by radio ligand binding assay

$$$$
CHEMBL2037080
Actelion Java MolfileCreator 2.0

  0  0  0  0  0  0              0 V3000
M  V30 BEGIN CTAB
M  V30 COUNTS 35 38 0 0 0
M  V30 BEGIN ATOM
M  V30 1 F 11.3893 -8.056 0.0 0
M  V30 2 C 10.3948 -8.1605 0.0 0
M  V30 3 F 10.4993 -9.1551 0.0 0
M  V30 4 F 9.4003 -8.2651 0.0 0
M  V30 5 C 10.2903 -7.166 0.0 0
M  V30 6 C 11.0993 -6.5782 0.0 0
M  V30 7 C 9.3767 -6.7593 0.0 0
M  V30 8 C 10.9948 -5.5837 0.0 0
M  V30 9 C 9.2722 -5.7648 0.0 0
M  V30 10 C 10.0812 -5.177 0.0 0
M  V30 11 C 9.9767 -4.1825 0.0 0
M  V30 12 O 10.7198 -3.5133 0.0 0
M  V30 13 N 9.1107 -3.6825 0.0 0
M  V30 14 C 10.3131 -2.5998 0.0 0
M  V30 15 C 9.3186 -2.7043 0.0 0
M  V30 16 C 10.8131 -1.7338 0.0 0
M  V30 17 C 8.6494 -1.9612 0.0 0
M  V30 18 N 7.6713 -2.1691 0.0 0
M  V30 19 C 6.9282 -1.4999 0.0 0
M  V30 20 C 7.2646 -3.0826 0.0 0
M  V30 21 C 6.0621 -2.0 0.0 0
M  V30 22 C 6.9282 -0.5 0.0 0
M  V30 23 C 6.27 -2.9781 0.0 0
M  V30 24 C 5.1961 -1.5 0.0 0
M  V30 25 C 6.0621 0.0 0.0 0
M  V30 26 C 5.1961 -0.5 0.0 0
M  V30 27 C 4.3301 0.0 0.0 0
M  V30 28 C 3.4641 -0.5 0.0 0 CFG=1
M  V30 29 O 2.598 0.0 0.0 0
M  V30 30 C 3.4641 -1.5 0.0 0
M  V30 31 C 1.732 -0.5 0.0 0
M  V30 32 O 2.598 -1.9999 0.0 0
M  V30 33 O 4.3301 -2.0 0.0 0
M  V30 34 C 0.866 0.0 0.0 0
M  V30 35 C 0.0 -0.5 0.0 0
M  V30 END ATOM
M  V30 BEGIN BOND
M  V30 1 1 1 2
M  V30 2 1 2 3
M  V30 3 1 2 4
M  V30 4 1 2 5
M  V30 5 2 5 6
M  V30 6 1 5 7
M  V30 7 1 6 8
M  V30 8 2 7 9
M  V30 9 2 8 10
M  V30 10 1 10 11
M  V30 11 1 11 12
M  V30 12 2 11 13
M  V30 13 1 12 14
M  V30 14 1 13 15
M  V30 15 1 14 16
M  V30 16 1 15 17
M  V30 17 1 17 18
M  V30 18 1 18 19
M  V30 19 1 18 20
M  V30 20 2 19 21
M  V30 21 1 19 22
M  V30 22 2 20 23
M  V30 23 1 21 24
M  V30 24 2 22 25
M  V30 25 2 24 26
M  V30 26 1 26 27
M  V30 27 1 27 28
M  V30 28 1 28 29 CFG=3
M  V30 29 1 28 30
M  V30 30 1 29 31
M  V30 31 2 30 32
M  V30 32 1 30 33
M  V30 33 1 31 34
M  V30 34 1 34 35
M  V30 35 1 9 10
M  V30 36 2 14 15
M  V30 37 1 21 23
M  V30 38 1 25 26
M  V30 END BOND
M  V30 BEGIN COLLECTION
M  V30 MDLV30/STEABS ATOMS=(1 28)
M  V30 END COLLECTION
M  V30 END CTAB
M  END
>  <Molecule ChEMBL ID>
CHEMBL2037080

>  <Smiles>
CCCO[C@H](Cc1ccc2c(ccn2Cc2nc(-c3ccc(C(F)(F)F)cc3)oc2C)c1)C(=O)O

>  <IC50_nM>
399.02

>  <Assay Description>
Agonist activity at PPARgamma

$$$$
CHEMBL2331559
Actelion Java MolfileCreator 2.0

  0  0  0  0  0  0              0 V3000
M  V30 BEGIN CTAB
M  V30 COUNTS 31 33 0 0 0
M  V30 BEGIN ATOM
M  V30 1 Cl 11.6913 1.5 0.0 0
M  V30 2 C 10.3923 2.25 0.0 0
M  V30 3 C 10.3923 3.75 0.0 0
M  V30 4 C 9.0932 1.5 0.0 0
M  V30 5 N 9.0932 4.5 0.0 0
M  V30 6 C 7.7942 2.25 0.0 0
M  V30 7 C 7.7942 3.75 0.0 0
M  V30 8 O 6.4951 1.5 0.0 0
M  V30 9 C 6.4951 0.0 0.0 0
M  V30 10 C 5.1961 -0.75 0.0 0
M  V30 11 C 7.7942 -0.75 0.0 0
M  V30 12 C 3.8971 0.0 0.0 0
M  V30 13 C 5.1961 -2.25 0.0 0
M  V30 14 C 7.7942 -2.25 0.0 0
M  V30 15 O 3.8971 1.5 0.0 0
M  V30 16 N 2.598 -0.75 0.0 0
M  V30 17 C 6.4951 -3.0 0.0 0
M  V30 18 C 1.299 0.0 0.0 0
M  V30 19 N 6.4951 -4.5 0.0 0
M  V30 20 C 0.0 -0.75 0.0 0
M  V30 21 S 5.1961 -5.25 0.0 0
M  V30 22 O 4.4461 -3.9509 0.0 0
M  V30 23 O 3.6961 -5.25 0.0 0
M  V30 24 C 5.1961 -6.75 0.0 0
M  V30 25 C 3.8971 -7.5 0.0 0
M  V30 26 C 6.4951 -7.5 0.0 0
M  V30 27 C 3.8971 -9.0 0.0 0
M  V30 28 C 6.4951 -9.0 0.0 0
M  V30 29 C 5.1961 -9.75 0.0 0
M  V30 30 O 5.1961 -11.25 0.0 0
M  V30 31 C 6.4951 -12.0 0.0 0
M  V30 END ATOM
M  V30 BEGIN BOND
M  V30 1 1 1 2
M  V30 2 2 2 3
M  V30 3 1 2 4
M  V30 4 1 3 5
M  V30 5 2 4 6
M  V30 6 2 5 7
M  V30 7 1 6 8
M  V30 8 1 8 9
M  V30 9 2 9 10
M  V30 10 1 9 11
M  V30 11 1 10 12
M  V30 12 1 10 13
M  V30 13 2 11 14
M  V30 14 2 12 15
M  V30 15 1 12 16
M  V30 16 2 13 17
M  V30 17 1 16 18
M  V30 18 1 17 19
M  V30 19 1 18 20
M  V30 20 1 19 21
M  V30 21 2 21 22
M  V30 22 2 21 23
M  V30 23 1 21 24
M  V30 24 2 24 25
M  V30 25 1 24 26
M  V30 26 1 25 27
M  V30 27 2 26 28
M  V30 28 2 27 29
M  V30 29 1 29 30
M  V30 30 1 30 31
M  V30 31 1 6 7
M  V30 32 1 14 17
M  V30 33 1 28 29
M  V30 END BOND
M  V30 END CTAB
M  END
>  <Molecule ChEMBL ID>
CHEMBL2331559

>  <Smiles>
CCNC(=O)c1cc(NS(=O)(=O)c2ccc(OC)cc2)ccc1Oc1cncc(Cl)c1

>  <IC50_nM>
400

>  <Assay Description>
Displacement of [3H]-rosiglitazone from GST-tagged PPARgammaLBD (unknown origin) after 1 hr by scintillation proximity assay

$$$$
CHEMBL218122
Actelion Java MolfileCreator 2.0

  0  0  0  0  0  0              0 V3000
M  V30 BEGIN CTAB
M  V30 COUNTS 36 39 0 0 0
M  V30 BEGIN ATOM
M  V30 1 S 3.8971 0.0 0.0 0
M  V30 2 O 4.6471 1.299 0.0 0
M  V30 3 O 3.1471 1.299 0.0 0
M  V30 4 N 2.598 -0.75 0.0 0
M  V30 5 C 5.1961 -0.75 0.0 0
M  V30 6 C 1.299 0.0 0.0 0
M  V30 7 C 5.1961 -2.25 0.0 0
M  V30 8 C 6.4951 0.0 0.0 0
M  V30 9 O 1.299 1.5 0.0 0
M  V30 10 C 0.0 -0.75 0.0 0
M  V30 11 C 6.4951 -3.0 0.0 0
M  V30 12 C 7.7942 -0.75 0.0 0
M  V30 13 N -1.3703 -0.1398 0.0 0
M  V30 14 C -0.1567 -2.2417 0.0 0
M  V30 15 C 7.7942 -2.25 0.0 0
M  V30 16 C 6.4951 -4.5 0.0 0
M  V30 17 C -2.374 -1.2546 0.0 0
M  V30 18 C -1.6821 1.3273 0.0 0
M  V30 19 C -1.624 -2.5536 0.0 0
M  V30 20 F 7.9951 -4.5 0.0 0
M  V30 21 F 6.4951 -6.0 0.0 0
M  V30 22 F 4.9951 -4.5 0.0 0
M  V30 23 C -3.874 -1.2546 0.0 0
M  V30 24 C -3.1087 1.7908 0.0 0
M  V30 25 C -2.374 -3.8526 0.0 0
M  V30 26 C -4.624 -2.5536 0.0 0
M  V30 27 C -3.4206 3.258 0.0 0
M  V30 28 C -4.2234 0.7871 0.0 0
M  V30 29 C -3.874 -3.8526 0.0 0
M  V30 30 C -4.8472 3.7216 0.0 0
M  V30 31 C -5.65 1.2506 0.0 0
M  V30 32 C -5.9619 2.7179 0.0 0
M  V30 33 C -7.3885 3.1814 0.0 0
M  V30 34 F -7.852 1.7548 0.0 0
M  V30 35 F -8.8151 3.6449 0.0 0
M  V30 36 F -6.925 4.608 0.0 0
M  V30 END ATOM
M  V30 BEGIN BOND
M  V30 1 2 1 2
M  V30 2 2 1 3
M  V30 3 1 1 4
M  V30 4 1 1 5
M  V30 5 1 4 6
M  V30 6 2 5 7
M  V30 7 1 5 8
M  V30 8 2 6 9
M  V30 9 1 6 10
M  V30 10 1 7 11
M  V30 11 2 8 12
M  V30 12 1 10 13
M  V30 13 2 10 14
M  V30 14 2 11 15
M  V30 15 1 11 16
M  V30 16 1 13 17
M  V30 17 1 13 18
M  V30 18 1 14 19
M  V30 19 1 16 20
M  V30 20 1 16 21
M  V30 21 1 16 22
M  V30 22 1 17 23
M  V30 23 1 18 24
M  V30 24 1 19 25
M  V30 25 2 23 26
M  V30 26 2 24 27
M  V30 27 1 24 28
M  V30 28 2 25 29
M  V30 29 1 27 30
M  V30 30 2 28 31
M  V30 31 2 30 32
M  V30 32 1 32 33
M  V30 33 1 33 34
M  V30 34 1 33 35
M  V30 35 1 33 36
M  V30 36 1 12 15
M  V30 37 2 17 19
M  V30 38 1 26 29
M  V30 39 1 31 32
M  V30 END BOND
M  V30 END CTAB
M  END
>  <Molecule ChEMBL ID>
CHEMBL218122

>  <Smiles>
O=C(NS(=O)(=O)c1cccc(C(F)(F)F)c1)c1cc2ccccc2n1Cc1ccc(C(F)(F)F)cc1

>  <IC50_nM>
400

>  <Assay Description>
Displacement of Fluormone from PPAR gamma

$$$$
CHEMBL4085687
Actelion Java MolfileCreator 2.0

  0  0  0  0  0  0              0 V3000
M  V30 BEGIN CTAB
M  V30 COUNTS 42 46 0 0 0
M  V30 BEGIN ATOM
M  V30 1 S 5.1961 -0.75 0.0 0
M  V30 2 O 4.4461 -2.049 0.0 0
M  V30 3 O 5.9461 -2.049 0.0 0
M  V30 4 N 3.8971 0.0 0.0 0
M  V30 5 C 6.4951 0.0 0.0 0
M  V30 6 C 2.598 -0.75 0.0 0
M  V30 7 C 7.7942 -0.75 0.0 0
M  V30 8 C 6.4951 1.5 0.0 0
M  V30 9 O 2.598 -2.25 0.0 0
M  V30 10 N 1.299 0.0 0.0 0
M  V30 11 C 9.0932 0.0 0.0 0
M  V30 12 C 7.7942 2.25 0.0 0
M  V30 13 C 0.0 -0.75 0.0 0
M  V30 14 C 9.0932 1.5 0.0 0
M  V30 15 C -1.299 0.0 0.0 0
M  V30 16 C 0.0 -2.25 0.0 0
M  V30 17 N 10.3923 2.25 0.0 0
M  V30 18 C -2.598 -0.75 0.0 0
M  V30 19 C -1.299 -3.0 0.0 0
M  V30 20 C 11.6913 1.5 0.0 0
M  V30 21 C -2.598 -2.25 0.0 0
M  V30 22 O 11.6913 0.0 0.0 0
M  V30 23 C 12.9903 2.25 0.0 0
M  V30 24 S 14.2894 1.5 0.0 0
M  V30 25 C 15.5884 2.25 0.0 0
M  V30 26 N 16.8875 1.5 0.0 0
M  V30 27 N 15.5884 3.75 0.0 0
M  V30 28 C 18.1865 2.25 0.0 0
M  V30 29 C 16.8875 4.5 0.0 0
M  V30 30 C 14.2894 4.5 0.0 0
M  V30 31 C 18.1865 3.75 0.0 0
M  V30 32 C 19.4855 1.5 0.0 0
M  V30 33 O 16.8875 6.0 0.0 0
M  V30 34 C 14.2894 6.0 0.0 0
M  V30 35 C 12.9903 3.75 0.0 0
M  V30 36 C 19.4855 4.5 0.0 0
M  V30 37 C 20.7846 2.25 0.0 0
M  V30 38 C 12.9903 6.75 0.0 0
M  V30 39 C 11.6913 4.5 0.0 0
M  V30 40 C 20.7846 3.75 0.0 0
M  V30 41 C 11.6913 6.0 0.0 0
M  V30 42 C 10.3923 6.75 0.0 0
M  V30 END ATOM
M  V30 BEGIN BOND
M  V30 1 2 1 2
M  V30 2 2 1 3
M  V30 3 1 1 4
M  V30 4 1 1 5
M  V30 5 1 4 6
M  V30 6 2 5 7
M  V30 7 1 5 8
M  V30 8 2 6 9
M  V30 9 1 6 10
M  V30 10 1 7 11
M  V30 11 2 8 12
M  V30 12 1 10 13
M  V30 13 2 11 14
M  V30 14 1 13 15
M  V30 15 1 13 16
M  V30 16 1 14 17
M  V30 17 1 15 18
M  V30 18 1 16 19
M  V30 19 1 17 20
M  V30 20 1 18 21
M  V30 21 2 20 22
M  V30 22 1 20 23
M  V30 23 1 23 24
M  V30 24 1 24 25
M  V30 25 2 25 26
M  V30 26 1 25 27
M  V30 27 1 26 28
M  V30 28 1 27 29
M  V30 29 1 27 30
M  V30 30 2 28 31
M  V30 31 1 28 32
M  V30 32 2 29 33
M  V30 33 2 30 34
M  V30 34 1 30 35
M  V30 35 1 31 36
M  V30 36 2 32 37
M  V30 37 1 34 38
M  V30 38 2 35 39
M  V30 39 2 36 40
M  V30 40 2 38 41
M  V30 41 1 41 42
M  V30 42 1 12 14
M  V30 43 1 19 21
M  V30 44 1 29 31
M  V30 45 1 37 40
M  V30 46 1 39 41
M  V30 END BOND
M  V30 END CTAB
M  END
>  <Molecule ChEMBL ID>
CHEMBL4085687

>  <Smiles>
Cc1ccc(-n2c(SCC(=O)Nc3ccc(S(=O)(=O)NC(=O)NC4CCCCC4)cc3)nc3ccccc3c2=O)cc1

>  <IC50_nM>
402

>  <Assay Description>
Displacement of fluormone-PPARgamma green from GST-tagged PPARgamma-LBD (unknown origin) by fluorescence polarization assay

$$$$
CHEMBL469939
Actelion Java MolfileCreator 2.0

  0  0  0  0  0  0              0 V3000
M  V30 BEGIN CTAB
M  V30 COUNTS 19 20 0 0 0
M  V30 BEGIN ATOM
M  V30 1 S 3.8971 0.0 0.0 0
M  V30 2 O 4.6471 1.299 0.0 0
M  V30 3 O 3.1471 1.299 0.0 0
M  V30 4 O 5.1961 -0.75 0.0 0
M  V30 5 C 2.598 -0.75 0.0 0
M  V30 6 C 6.4952 0.0 0.0 0
M  V30 7 C 1.299 0.0 0.0 0
M  V30 8 C 7.7942 -0.75 0.0 0
M  V30 9 C 6.4952 1.5 0.0 0
M  V30 10 C 0.0 -0.75 0.0 0
M  V30 11 C 9.0932 0.0 0.0 0
M  V30 12 C 7.7942 2.25 0.0 0
M  V30 13 C -1.299 0.0 0.0 0
M  V30 14 C 0.0 -2.25 0.0 0
M  V30 15 C 9.0932 1.5 0.0 0
M  V30 16 C -2.598 -0.75 0.0 0
M  V30 17 C -1.299 -3.0 0.0 0
M  V30 18 C 10.3923 2.25 0.0 0
M  V30 19 C -2.598 -2.25 0.0 0
M  V30 END ATOM
M  V30 BEGIN BOND
M  V30 1 2 1 2
M  V30 2 2 1 3
M  V30 3 1 1 4
M  V30 4 1 1 5
M  V30 5 1 4 6
M  V30 6 2 5 7
M  V30 7 2 6 8
M  V30 8 1 6 9
M  V30 9 1 7 10
M  V30 10 1 8 11
M  V30 11 2 9 12
M  V30 12 2 10 13
M  V30 13 1 10 14
M  V30 14 2 11 15
M  V30 15 1 13 16
M  V30 16 2 14 17
M  V30 17 1 15 18
M  V30 18 2 16 19
M  V30 19 1 12 15
M  V30 20 1 17 19
M  V30 END BOND
M  V30 END CTAB
M  END
>  <Molecule ChEMBL ID>
CHEMBL469939

>  <Smiles>
Cc1ccc(OS(=O)(=O)/C=C/c2ccccc2)cc1

>  <IC50_nM>
407

>  <Assay Description>
Displacement of [3H]BRL49653 from PPARgamma ligand binding domain by scintillation proximity assay

$$$$
CHEMBL4080597
Actelion Java MolfileCreator 2.0

  0  0  0  0  0  0              0 V3000
M  V30 BEGIN CTAB
M  V30 COUNTS 34 36 0 0 0
M  V30 BEGIN ATOM
M  V30 1 S 9.0932 0.0 0.0 0
M  V30 2 O 9.8432 1.299 0.0 0
M  V30 3 O 8.3432 1.299 0.0 0
M  V30 4 N 7.7942 -0.75 0.0 0
M  V30 5 C 10.3923 -0.75 0.0 0
M  V30 6 C 6.4951 0.0 0.0 0
M  V30 7 C 10.3923 -2.25 0.0 0
M  V30 8 C 11.6913 0.0 0.0 0
M  V30 9 O 6.4951 1.5 0.0 0
M  V30 10 N 5.1961 -0.75 0.0 0
M  V30 11 C 11.6913 -3.0 0.0 0
M  V30 12 C 12.9903 -0.75 0.0 0
M  V30 13 C 3.8971 0.0 0.0 0
M  V30 14 C 12.9903 -2.25 0.0 0
M  V30 15 C 2.598 -0.75 0.0 0
M  V30 16 N 14.2894 -3.0 0.0 0
M  V30 17 C 1.299 0.0 0.0 0
M  V30 18 C 15.5884 -2.25 0.0 0
M  V30 19 C 0.0 -0.75 0.0 0
M  V30 20 O 15.5884 -0.75 0.0 0
M  V30 21 C 16.8875 -3.0 0.0 0
M  V30 22 N 18.1865 -2.25 0.0 0
M  V30 23 C 18.1865 -0.75 0.0 0
M  V30 24 C 19.4855 -3.0 0.0 0
M  V30 25 O 16.8875 0.0 0.0 0
M  V30 26 C 19.4855 0.0 0.0 0
M  V30 27 N 20.7846 -2.25 0.0 0
M  V30 28 C 19.4855 -4.5 0.0 0
M  V30 29 C 20.7846 -0.75 0.0 0
M  V30 30 C 19.4855 1.5 0.0 0
M  V30 31 C 18.1865 -5.25 0.0 0
M  V30 32 C 22.0836 0.0 0.0 0
M  V30 33 C 20.7846 2.25 0.0 0
M  V30 34 C 22.0836 1.5 0.0 0
M  V30 END ATOM
M  V30 BEGIN BOND
M  V30 1 2 1 2
M  V30 2 2 1 3
M  V30 3 1 1 4
M  V30 4 1 1 5
M  V30 5 1 4 6
M  V30 6 2 5 7
M  V30 7 1 5 8
M  V30 8 2 6 9
M  V30 9 1 6 10
M  V30 10 1 7 11
M  V30 11 2 8 12
M  V30 12 1 10 13
M  V30 13 2 11 14
M  V30 14 1 13 15
M  V30 15 1 14 16
M  V30 16 1 15 17
M  V30 17 1 16 18
M  V30 18 1 17 19
M  V30 19 2 18 20
M  V30 20 1 18 21
M  V30 21 1 21 22
M  V30 22 1 22 23
M  V30 23 1 22 24
M  V30 24 2 23 25
M  V30 25 1 23 26
M  V30 26 2 24 27
M  V30 27 1 24 28
M  V30 28 2 26 29
M  V30 29 1 26 30
M  V30 30 1 28 31
M  V30 31 1 29 32
M  V30 32 2 30 33
M  V30 33 2 32 34
M  V30 34 1 12 14
M  V30 35 1 27 29
M  V30 36 1 33 34
M  V30 END BOND
M  V30 END CTAB
M  END
>  <Molecule ChEMBL ID>
CHEMBL4080597

>  <Smiles>
CCCCNC(=O)NS(=O)(=O)c1ccc(NC(=O)Cn2c(CC)nc3ccccc3c2=O)cc1

>  <IC50_nM>
408

>  <Assay Description>
Displacement of fluormone-PPARgamma green from GST-tagged PPARgamma-LBD (unknown origin) by fluorescence polarization assay

$$$$
CHEMBL554608
Actelion Java MolfileCreator 2.0

  0  0  0  0  0  0              0 V3000
M  V30 BEGIN CTAB
M  V30 COUNTS 23 22 0 0 0
M  V30 BEGIN ATOM
M  V30 1 O 14.2894 -3.0 0.0 0
M  V30 2 N 15.5884 -2.25 0.0 0 CHG=1
M  V30 3 O 16.8874 -3.0 0.0 0 CHG=-1
M  V30 4 C 15.5884 -0.75 0.0 0
M  V30 5 C 16.8874 0.0 0.0 0
M  V30 6 C 14.2894 0.0 0.0 0
M  V30 7 C 16.8874 1.5 0.0 0
M  V30 8 C 12.9903 -0.75 0.0 0
M  V30 9 C 18.1865 2.2499 0.0 0
M  V30 10 C 11.6913 0.0 0.0 0
M  V30 11 C 18.1865 3.7499 0.0 0
M  V30 12 C 11.6913 1.4999 0.0 0
M  V30 13 C 19.4855 4.4999 0.0 0
M  V30 14 C 10.3923 2.2499 0.0 0
M  V30 15 C 19.4855 5.9999 0.0 0
M  V30 16 C 10.3923 3.7499 0.0 0
M  V30 17 C 9.0932 4.4999 0.0 0
M  V30 18 C 9.0932 5.9999 0.0 0
M  V30 19 C 7.7942 6.7499 0.0 0
M  V30 20 C 7.7942 8.2499 0.0 0
M  V30 21 C 6.4951 8.9999 0.0 0
M  V30 22 O 5.1961 8.2499 0.0 0
M  V30 23 O 6.4951 10.4999 0.0 0
M  V30 END ATOM
M  V30 BEGIN BOND
M  V30 1 2 1 2
M  V30 2 1 2 3
M  V30 3 1 2 4
M  V30 4 2 4 5
M  V30 5 1 4 6
M  V30 6 1 5 7
M  V30 7 1 6 8
M  V30 8 1 7 9
M  V30 9 2 8 10
M  V30 10 1 9 11
M  V30 11 1 10 12
M  V30 12 1 11 13
M  V30 13 1 12 14
M  V30 14 1 13 15
M  V30 15 1 14 16
M  V30 16 1 16 17
M  V30 17 1 17 18
M  V30 18 1 18 19
M  V30 19 1 19 20
M  V30 20 1 20 21
M  V30 21 2 21 22
M  V30 22 1 21 23
M  V30 END BOND
M  V30 END CTAB
M  END
>  <Molecule ChEMBL ID>
CHEMBL554608

>  <Smiles>
CCCCC/C=C(\C/C=C\CCCCCCCC(=O)O)[N+](=O)[O-]

>  <IC50_nM>
410

>  <Assay Description>
Displacement of [3H2]nTZD3 from GST-tagged human recombinant PPARgamma by scintillation proximity assay

$$$$
CHEMBL212023
Actelion Java MolfileCreator 2.0

  0  0  0  0  0  0              0 V3000
M  V30 BEGIN CTAB
M  V30 COUNTS 36 38 0 0 0
M  V30 BEGIN ATOM
M  V30 1 O 4.3301 -3.0 0.0 0
M  V30 2 C 3.4641 -3.5 0.0 0
M  V30 3 C 2.598 -3.0 0.0 0
M  V30 4 C 3.4641 -4.5 0.0 0
M  V30 5 C 2.598 -2.0 0.0 0
M  V30 6 C 1.732 -3.5 0.0 0
M  V30 7 C 2.598 -4.9999 0.0 0
M  V30 8 C 4.3301 -5.0 0.0 0
M  V30 9 O 3.4641 -1.5 0.0 0
M  V30 10 C 1.732 -1.5 0.0 0
M  V30 11 C 0.866 -3.0 0.0 0
M  V30 12 C 2.598 -5.9999 0.0 0
M  V30 13 C 4.3301 -6.0 0.0 0
M  V30 14 C 3.4641 -0.5 0.0 0 CFG=2
M  V30 15 C 0.866 -2.0 0.0 0
M  V30 16 C 0.0 -3.5 0.0 0
M  V30 17 C 3.4641 -6.5 0.0 0
M  V30 18 C 2.598 0.0 0.0 0
M  V30 19 C 4.3301 0.0 0.0 0
M  V30 20 C 0.0 -4.5 0.0 0
M  V30 21 C 1.732 -0.5 0.0 0
M  V30 22 C 5.1961 -0.5 0.0 0
M  V30 23 O 0.866 0.0 0.0 0
M  V30 24 C 6.0621 0.0 0.0 0
M  V30 25 C 0.0 -0.5 0.0 0
M  V30 26 C -0.866 0.0 0.0 0
M  V30 27 C 0.0 -1.4999 0.0 0
M  V30 28 C -1.732 -0.4999 0.0 0
M  V30 29 C -0.866 -1.9999 0.0 0
M  V30 30 C -1.732 -1.4999 0.0 0
M  V30 31 C -2.598 0.0 0.0 0
M  V30 32 C -2.598 -1.9999 0.0 0
M  V30 33 C -2.598 -2.9999 0.0 0
M  V30 34 C -3.4641 -3.4999 0.0 0
M  V30 35 O -4.3301 -2.9999 0.0 0
M  V30 36 O -3.4641 -4.4999 0.0 0
M  V30 END ATOM
M  V30 BEGIN BOND
M  V30 1 2 1 2
M  V30 2 1 2 3
M  V30 3 1 2 4
M  V30 4 2 3 5
M  V30 5 1 3 6
M  V30 6 2 4 7
M  V30 7 1 4 8
M  V30 8 1 5 9
M  V30 9 1 5 10
M  V30 10 2 6 11
M  V30 11 1 7 12
M  V30 12 2 8 13
M  V30 13 1 14 9 CFG=3
M  V30 14 2 10 15
M  V30 15 1 11 16
M  V30 16 2 12 17
M  V30 17 1 14 18
M  V30 18 1 14 19
M  V30 19 1 16 20
M  V30 20 1 18 21
M  V30 21 1 19 22
M  V30 22 1 21 23
M  V30 23 1 22 24
M  V30 24 1 23 25
M  V30 25 2 25 26
M  V30 26 1 25 27
M  V30 27 1 26 28
M  V30 28 2 27 29
M  V30 29 2 28 30
M  V30 30 1 28 31
M  V30 31 1 30 32
M  V30 32 1 32 33
M  V30 33 1 33 34
M  V30 34 2 34 35
M  V30 35 1 34 36
M  V30 36 1 11 15
M  V30 37 1 13 17
M  V30 38 1 29 30
M  V30 END BOND
M  V30 BEGIN COLLECTION
M  V30 MDLV30/STERAC1 ATOMS=(1 14)
M  V30 END COLLECTION
M  V30 END CTAB
M  END
>  <Molecule ChEMBL ID>
CHEMBL212023

>  <Smiles>
CCCC(CCOc1ccc(CCC(=O)O)c(C)c1)Oc1ccc(CC)cc1C(=O)c1ccccc1

>  <IC50_nM>
417

>  <Assay Description>
Displacement of [3H]2-methyl-2-(4-{3-[propyl-(5-pyridin-2-yl-thiophene-2-sulfonyl)-amino]-propyl}-phenoxy)-propionic acid from human PPARgamma by SPA

$$$$
CHEMBL118887
Actelion Java MolfileCreator 2.0

  0  0  0  0  0  0              0 V3000
M  V30 BEGIN CTAB
M  V30 COUNTS 33 36 0 0 0
M  V30 BEGIN ATOM
M  V30 1 F 7.9913 2.4393 0.0 0
M  V30 2 C 7.7834 1.4612 0.0 0
M  V30 3 F 8.7616 1.2533 0.0 0
M  V30 4 F 7.5755 0.483 0.0 0
M  V30 5 C 6.8053 1.6691 0.0 0
M  V30 6 N 6.3985 2.5826 0.0 0
M  V30 7 C 6.0621 0.9999 0.0 0
M  V30 8 O 5.404 2.4781 0.0 0
M  V30 9 C 5.1961 1.4999 0.0 0
M  V30 10 C 6.0621 0.0 0.0 0
M  V30 11 C 4.3301 0.9999 0.0 0
M  V30 12 C 5.1961 -0.4999 0.0 0
M  V30 13 C 4.3301 0.0 0.0 0
M  V30 14 C 3.4641 1.5 0.0 0
M  V30 15 O 3.4641 -0.5 0.0 0
M  V30 16 C 3.4641 2.5 0.0 0
M  V30 17 C 2.598 0.0 0.0 0
M  V30 18 C 2.598 3.0 0.0 0
M  V30 19 C 1.732 -0.5 0.0 0
M  V30 20 O 0.866 0.0 0.0 0
M  V30 21 C 0.0 -0.5 0.0 0
M  V30 22 C 0.0 -1.4999 0.0 0
M  V30 23 C -0.866 0.0 0.0 0
M  V30 24 C -0.866 -1.9999 0.0 0
M  V30 25 C -1.732 -0.4999 0.0 0
M  V30 26 C -1.732 -1.4999 0.0 0
M  V30 27 C -1.0739 -2.9781 0.0 0
M  V30 28 N -2.4751 -2.1691 0.0 0
M  V30 29 C -2.0684 -3.0826 0.0 0
M  V30 30 C -3.4533 -1.9612 0.0 0
M  V30 31 C -3.7623 -1.0101 0.0 0
M  V30 32 O -3.0932 -0.267 0.0 0
M  V30 33 O -4.7405 -0.8022 0.0 0
M  V30 END ATOM
M  V30 BEGIN BOND
M  V30 1 1 1 2
M  V30 2 1 2 3
M  V30 3 1 2 4
M  V30 4 1 2 5
M  V30 5 2 5 6
M  V30 6 1 5 7
M  V30 7 1 6 8
M  V30 8 2 7 9
M  V30 9 1 7 10
M  V30 10 1 9 11
M  V30 11 2 10 12
M  V30 12 2 11 13
M  V30 13 1 11 14
M  V30 14 1 13 15
M  V30 15 1 14 16
M  V30 16 1 15 17
M  V30 17 1 16 18
M  V30 18 1 17 19
M  V30 19 1 19 20
M  V30 20 1 20 21
M  V30 21 2 21 22
M  V30 22 1 21 23
M  V30 23 1 22 24
M  V30 24 2 23 25
M  V30 25 2 24 26
M  V30 26 1 24 27
M  V30 27 1 26 28
M  V30 28 2 27 29
M  V30 29 1 28 30
M  V30 30 1 30 31
M  V30 31 2 31 32
M  V30 32 1 31 33
M  V30 33 1 8 9
M  V30 34 1 12 13
M  V30 35 1 25 26
M  V30 36 1 28 29
M  V30 END BOND
M  V30 END CTAB
M  END
>  <Molecule ChEMBL ID>
CHEMBL118887

>  <Smiles>
CCCc1c(OCCOc2ccc3c(ccn3CC(=O)O)c2)ccc2c(C(F)(F)F)noc12

>  <IC50_nM>
422

>  <Assay Description>
Displacement of [3H]rosiglitazone from human PPAR gamma by SPA assay

$$$$
CHEMBL298187
Actelion Java MolfileCreator 2.0

  0  0  0  0  0  0              0 V3000
M  V30 BEGIN CTAB
M  V30 COUNTS 35 38 0 0 0
M  V30 BEGIN ATOM
M  V30 1 Cl 6.0621 1.0 0.0 0
M  V30 2 C 6.0621 0.0 0.0 0
M  V30 3 C 5.1961 -0.5 0.0 0
M  V30 4 C 6.9282 -0.4999 0.0 0
M  V30 5 O 4.3301 0.0 0.0 0
M  V30 6 C 5.1961 -1.4999 0.0 0
M  V30 7 C 6.9282 -1.4999 0.0 0
M  V30 8 C 3.4641 -0.5 0.0 0
M  V30 9 C 6.0621 -1.9999 0.0 0
M  V30 10 C 7.7942 -1.9999 0.0 0 CFG=1
M  V30 11 C 2.598 0.0 0.0 0
M  V30 12 S 7.8987 -2.9945 0.0 0
M  V30 13 C 8.7077 -1.5932 0.0 0
M  V30 14 C 1.732 -0.5 0.0 0
M  V30 15 C 8.8769 -3.2024 0.0 0
M  V30 16 O 8.9156 -0.6151 0.0 0
M  V30 17 N 9.3769 -2.3364 0.0 0
M  V30 18 O 0.866 0.0 0.0 0
M  V30 19 O 9.2836 -4.1159 0.0 0
M  V30 20 C 0.0 -0.5 0.0 0
M  V30 21 C -0.866 0.0 0.0 0
M  V30 22 C 0.0 -1.4999 0.0 0
M  V30 23 C -1.732 -0.4999 0.0 0
M  V30 24 C -0.866 1.0 0.0 0
M  V30 25 C -0.866 -1.9999 0.0 0
M  V30 26 C -1.732 -1.4999 0.0 0
M  V30 27 C 0.0 1.5 0.0 0
M  V30 28 O -2.598 -1.9999 0.0 0
M  V30 29 C 0.0 2.5 0.0 0
M  V30 30 C -2.598 -2.9999 0.0 0
M  V30 31 C -3.4641 -3.4999 0.0 0
M  V30 32 C -1.732 -3.4999 0.0 0
M  V30 33 C -3.4641 -4.4999 0.0 0
M  V30 34 C -1.732 -4.4999 0.0 0
M  V30 35 C -2.598 -4.9999 0.0 0
M  V30 END ATOM
M  V30 BEGIN BOND
M  V30 1 1 1 2
M  V30 2 2 2 3
M  V30 3 1 2 4
M  V30 4 1 3 5
M  V30 5 1 3 6
M  V30 6 2 4 7
M  V30 7 1 5 8
M  V30 8 2 6 9
M  V30 9 1 10 7 CFG=3
M  V30 10 1 8 11
M  V30 11 1 10 12
M  V30 12 1 10 13
M  V30 13 1 11 14
M  V30 14 1 12 15
M  V30 15 2 13 16
M  V30 16 1 13 17
M  V30 17 1 14 18
M  V30 18 2 15 19
M  V30 19 1 18 20
M  V30 20 2 20 21
M  V30 21 1 20 22
M  V30 22 1 21 23
M  V30 23 1 21 24
M  V30 24 2 22 25
M  V30 25 2 23 26
M  V30 26 1 24 27
M  V30 27 1 26 28
M  V30 28 1 27 29
M  V30 29 1 28 30
M  V30 30 2 30 31
M  V30 31 1 30 32
M  V30 32 1 31 33
M  V30 33 2 32 34
M  V30 34 2 33 35
M  V30 35 1 7 9
M  V30 36 1 15 17
M  V30 37 1 25 26
M  V30 38 1 34 35
M  V30 END BOND
M  V30 BEGIN COLLECTION
M  V30 MDLV30/STERAC1 ATOMS=(1 10)
M  V30 END COLLECTION
M  V30 END CTAB
M  END
>  <Molecule ChEMBL ID>
CHEMBL298187

>  <Smiles>
CCCc1cc(Oc2ccccc2)ccc1OCCCOc1ccc(C2SC(=O)NC2=O)cc1Cl

>  <IC50_nM>
430

>  <Assay Description>
In vitro binding affinity against human PPAR gamma (peroxisome proliferator-activated gamma receptor)

$$$$
CHEMBL4093428
Actelion Java MolfileCreator 2.0

  0  0  0  0  0  0              0 V3000
M  V30 BEGIN CTAB
M  V30 COUNTS 40 43 0 0 0
M  V30 BEGIN ATOM
M  V30 1 S 9.0932 0.0 0.0 0
M  V30 2 O 9.8432 1.299 0.0 0
M  V30 3 O 8.3432 1.299 0.0 0
M  V30 4 N 7.7942 -0.75 0.0 0
M  V30 5 C 10.3923 -0.75 0.0 0
M  V30 6 C 6.4951 0.0 0.0 0
M  V30 7 C 10.3923 -2.25 0.0 0
M  V30 8 C 11.6913 0.0 0.0 0
M  V30 9 O 6.4951 1.5 0.0 0
M  V30 10 N 5.1961 -0.75 0.0 0
M  V30 11 C 11.6913 -3.0 0.0 0
M  V30 12 C 12.9903 -0.75 0.0 0
M  V30 13 C 3.8971 0.0 0.0 0
M  V30 14 C 12.9903 -2.25 0.0 0
M  V30 15 C 2.598 -0.75 0.0 0
M  V30 16 N 14.2894 -3.0 0.0 0
M  V30 17 C 1.299 0.0 0.0 0
M  V30 18 C 14.2894 -4.5 0.0 0
M  V30 19 C 0.0 -0.75 0.0 0
M  V30 20 O 12.9903 -5.25 0.0 0
M  V30 21 C 15.5884 -5.25 0.0 0
M  V30 22 S 15.5884 -6.75 0.0 0
M  V30 23 C 16.8875 -7.5 0.0 0
M  V30 24 N 16.8875 -9.0 0.0 0
M  V30 25 N 18.1865 -6.75 0.0 0
M  V30 26 C 18.1865 -9.75 0.0 0
M  V30 27 C 19.4855 -7.5 0.0 0
M  V30 28 C 18.1865 -5.25 0.0 0
M  V30 29 C 19.4855 -9.0 0.0 0
M  V30 30 C 18.1865 -11.25 0.0 0
M  V30 31 O 20.7846 -6.75 0.0 0
M  V30 32 C 19.4855 -4.5 0.0 0
M  V30 33 C 16.8875 -4.5 0.0 0
M  V30 34 C 20.7846 -9.75 0.0 0
M  V30 35 C 19.4855 -12.0 0.0 0
M  V30 36 C 19.4855 -3.0 0.0 0
M  V30 37 C 16.8875 -3.0 0.0 0
M  V30 38 C 20.7846 -11.25 0.0 0
M  V30 39 C 18.1865 -2.25 0.0 0
M  V30 40 C 18.1865 -0.75 0.0 0
M  V30 END ATOM
M  V30 BEGIN BOND
M  V30 1 2 1 2
M  V30 2 2 1 3
M  V30 3 1 1 4
M  V30 4 1 1 5
M  V30 5 1 4 6
M  V30 6 2 5 7
M  V30 7 1 5 8
M  V30 8 2 6 9
M  V30 9 1 6 10
M  V30 10 1 7 11
M  V30 11 2 8 12
M  V30 12 1 10 13
M  V30 13 2 11 14
M  V30 14 1 13 15
M  V30 15 1 14 16
M  V30 16 1 15 17
M  V30 17 1 16 18
M  V30 18 1 17 19
M  V30 19 2 18 20
M  V30 20 1 18 21
M  V30 21 1 21 22
M  V30 22 1 22 23
M  V30 23 2 23 24
M  V30 24 1 23 25
M  V30 25 1 24 26
M  V30 26 1 25 27
M  V30 27 1 25 28
M  V30 28 2 26 29
M  V30 29 1 26 30
M  V30 30 2 27 31
M  V30 31 2 28 32
M  V30 32 1 28 33
M  V30 33 1 29 34
M  V30 34 2 30 35
M  V30 35 1 32 36
M  V30 36 2 33 37
M  V30 37 2 34 38
M  V30 38 2 36 39
M  V30 39 1 39 40
M  V30 40 1 12 14
M  V30 41 1 27 29
M  V30 42 1 35 38
M  V30 43 1 37 39
M  V30 END BOND
M  V30 END CTAB
M  END
>  <Molecule ChEMBL ID>
CHEMBL4093428

>  <Smiles>
CCCCNC(=O)NS(=O)(=O)c1ccc(NC(=O)CSc2nc3ccccc3c(=O)n2-c2ccc(C)cc2)cc1

>  <IC50_nM>
434

>  <Assay Description>
Displacement of fluormone-PPARgamma green from GST-tagged PPARgamma-LBD (unknown origin) by fluorescence polarization assay

$$$$
CHEMBL110743
Actelion Java MolfileCreator 2.0

  0  0  0  0  0  0              0 V3000
M  V30 BEGIN CTAB
M  V30 COUNTS 36 39 0 0 0
M  V30 BEGIN ATOM
M  V30 1 O 10.3923 -0.4999 0.0 0
M  V30 2 C 9.5262 0.0 0.0 0
M  V30 3 O 9.5262 1.0 0.0 0
M  V30 4 C 8.6602 -0.5 0.0 0 CFG=1
M  V30 5 O 7.7942 0.0 0.0 0
M  V30 6 C 8.6602 -1.5 0.0 0
M  V30 7 C 8.6602 0.5 0.0 0
M  V30 8 C 6.9282 -0.5 0.0 0
M  V30 9 C 7.7942 -1.9999 0.0 0
M  V30 10 C 7.7942 1.0 0.0 0
M  V30 11 C 6.9282 -1.5 0.0 0
M  V30 12 C 6.0621 0.0 0.0 0
M  V30 13 C 6.0621 -2.0 0.0 0
M  V30 14 C 5.1961 -0.5 0.0 0
M  V30 15 C 5.1961 -1.5 0.0 0
M  V30 16 O 4.3301 0.0 0.0 0
M  V30 17 C 3.4641 -0.5 0.0 0
M  V30 18 C 2.598 0.0 0.0 0
M  V30 19 C 1.732 -0.5 0.0 0
M  V30 20 O 0.866 0.0 0.0 0
M  V30 21 C 0.0 -0.5 0.0 0
M  V30 22 C -0.866 0.0 0.0 0
M  V30 23 C 0.0 -1.4999 0.0 0
M  V30 24 C -1.732 -0.4999 0.0 0
M  V30 25 C -0.866 1.0 0.0 0
M  V30 26 C -0.866 -1.9999 0.0 0
M  V30 27 C -1.732 -1.4999 0.0 0
M  V30 28 C 0.0 1.5 0.0 0
M  V30 29 O -2.598 -1.9999 0.0 0
M  V30 30 C 0.0 2.5 0.0 0
M  V30 31 C -2.598 -2.9999 0.0 0
M  V30 32 C -3.4641 -3.4999 0.0 0
M  V30 33 C -1.732 -3.4999 0.0 0
M  V30 34 C -3.4641 -4.4999 0.0 0
M  V30 35 C -1.732 -4.4999 0.0 0
M  V30 36 C -2.598 -4.9999 0.0 0
M  V30 END ATOM
M  V30 BEGIN BOND
M  V30 1 2 1 2
M  V30 2 1 2 3
M  V30 3 1 2 4
M  V30 4 1 4 5
M  V30 5 1 4 6
M  V30 6 1 4 7 CFG=1
M  V30 7 1 5 8
M  V30 8 1 6 9
M  V30 9 1 7 10
M  V30 10 2 8 11
M  V30 11 1 8 12
M  V30 12 1 11 13
M  V30 13 2 12 14
M  V30 14 2 13 15
M  V30 15 1 14 16
M  V30 16 1 16 17
M  V30 17 1 17 18
M  V30 18 1 18 19
M  V30 19 1 19 20
M  V30 20 1 20 21
M  V30 21 2 21 22
M  V30 22 1 21 23
M  V30 23 1 22 24
M  V30 24 1 22 25
M  V30 25 2 23 26
M  V30 26 2 24 27
M  V30 27 1 25 28
M  V30 28 1 27 29
M  V30 29 1 28 30
M  V30 30 1 29 31
M  V30 31 2 31 32
M  V30 32 1 31 33
M  V30 33 1 32 34
M  V30 34 2 33 35
M  V30 35 2 34 36
M  V30 36 1 9 11
M  V30 37 1 14 15
M  V30 38 1 26 27
M  V30 39 1 35 36
M  V30 END BOND
M  V30 BEGIN COLLECTION
M  V30 MDLV30/STERAC1 ATOMS=(1 4)
M  V30 END COLLECTION
M  V30 END CTAB
M  END
>  <Molecule ChEMBL ID>
CHEMBL110743

>  <Smiles>
CCCc1cc(Oc2ccccc2)ccc1OCCCOc1ccc2c(c1)OC(CC)(C(=O)O)CC2

>  <IC50_nM>
440

>  <Assay Description>
In vitro binding affinity for human peroxisome proliferator activated receptor gamma using scintillation proximity assay (SPA)

$$$$
CHEMBL190169
Actelion Java MolfileCreator 2.0

  0  0  0  0  0  0              0 V3000
M  V30 BEGIN CTAB
M  V30 COUNTS 36 39 0 0 0
M  V30 BEGIN ATOM
M  V30 1 O 9.7263 -4.158 0.0 0
M  V30 2 C 9.2608 -2.7253 0.0 0
M  V30 3 N 10.1463 -1.5065 0.0 0
M  V30 4 C 7.828 -2.2597 0.0 0
M  V30 5 O 9.2608 -0.2877 0.0 0
M  V30 6 C 11.6528 -1.5065 0.0 0
M  V30 7 C 7.828 -0.7532 0.0 0
M  V30 8 C 6.5233 -3.013 0.0 0
M  V30 9 C 12.4061 -2.8111 0.0 0
M  V30 10 C 12.4061 -0.2018 0.0 0
M  V30 11 C 6.5233 0.0 0.0 0
M  V30 12 C 5.2187 -2.2597 0.0 0
M  V30 13 C 13.9126 -2.8111 0.0 0
M  V30 14 C 13.9126 -0.2018 0.0 0
M  V30 15 C 5.2187 -0.7532 0.0 0
M  V30 16 C 6.5233 1.5065 0.0 0
M  V30 17 C 3.9547 -3.3029 0.0 0
M  V30 18 C 14.6658 -1.5065 0.0 0
M  V30 19 O 3.914 0.0 0.0 0
M  V30 20 C 7.828 2.2597 0.0 0
M  V30 21 C 3.914 -4.5195 0.0 0
M  V30 22 C 2.6093 -0.7532 0.0 0 CFG=1
M  V30 23 C 9.1327 1.5065 0.0 0
M  V30 24 C 2.6093 -5.2727 0.0 0
M  V30 25 C 1.3046 0.0 0.0 0
M  V30 26 C 2.6093 -2.2597 0.0 0
M  V30 27 C 0.0 -0.7532 0.0 0
M  V30 28 C 1.3046 1.5065 0.0 0
M  V30 29 O 3.8907 -2.847 0.0 0
M  V30 30 O 1.3046 -3.013 0.0 0
M  V30 31 C -1.3046 0.0 0.0 0
M  V30 32 C 0.0 2.2597 0.0 0
M  V30 33 C -1.3046 1.5065 0.0 0
M  V30 34 C -2.6093 2.2597 0.0 0
M  V30 35 C -3.914 1.5065 0.0 0
M  V30 36 C -2.6093 3.7662 0.0 0
M  V30 END ATOM
M  V30 BEGIN BOND
M  V30 1 2 1 2
M  V30 2 1 2 3
M  V30 3 1 2 4
M  V30 4 1 3 5
M  V30 5 1 3 6
M  V30 6 2 4 7
M  V30 7 1 4 8
M  V30 8 1 6 9
M  V30 9 1 6 10
M  V30 10 1 7 11
M  V30 11 2 8 12
M  V30 12 1 9 13
M  V30 13 1 10 14
M  V30 14 2 11 15
M  V30 15 1 11 16
M  V30 16 1 12 17
M  V30 17 1 13 18
M  V30 18 1 15 19
M  V30 19 1 16 20
M  V30 20 1 17 21
M  V30 21 1 22 19 CFG=3
M  V30 22 1 20 23
M  V30 23 1 21 24
M  V30 24 1 22 25
M  V30 25 1 22 26
M  V30 26 2 25 27
M  V30 27 1 25 28
M  V30 28 2 26 29
M  V30 29 1 26 30
M  V30 30 1 27 31
M  V30 31 2 28 32
M  V30 32 2 31 33
M  V30 33 1 33 34
M  V30 34 1 34 35
M  V30 35 1 34 36
M  V30 36 1 5 7
M  V30 37 1 12 15
M  V30 38 1 14 18
M  V30 39 1 32 33
M  V30 END BOND
M  V30 BEGIN COLLECTION
M  V30 MDLV30/STEABS ATOMS=(1 22)
M  V30 END COLLECTION
M  V30 END CTAB
M  END
>  <Molecule ChEMBL ID>
CHEMBL190169

>  <Smiles>
CCCc1cc2c(=O)n(C3CCCCC3)oc2c(CCC)c1O[C@H](C(=O)O)c1ccc(C(C)C)cc1

>  <IC50_nM>
440

>  <Assay Description>
In vitro binding affinity for human PPAR gamma

$$$$
CHEMBL4546437
Actelion Java MolfileCreator 2.0

  0  0  0  0  0  0              0 V3000
M  V30 BEGIN CTAB
M  V30 COUNTS 39 42 0 0 0
M  V30 BEGIN ATOM
M  V30 1 O 7.7942 -2.25 0.0 0
M  V30 2 C 7.7942 -0.75 0.0 0
M  V30 3 N 9.0932 0.0 0.0 0
M  V30 4 C 6.4951 0.0 0.0 0
M  V30 5 C 9.0932 1.4999 0.0 0
M  V30 6 C 10.3923 -0.75 0.0 0
M  V30 7 C 6.4951 1.4999 0.0 0
M  V30 8 C 5.1961 -0.75 0.0 0
M  V30 9 N 7.7942 2.2499 0.0 0
M  V30 10 C 10.3923 2.2499 0.0 0
M  V30 11 C 11.6913 0.0 0.0 0
M  V30 12 C 5.1961 2.2499 0.0 0
M  V30 13 C 5.1961 -2.25 0.0 0
M  V30 14 C 10.3923 3.7499 0.0 0
M  V30 15 C 12.9903 -0.75 0.0 0
M  V30 16 C 11.6913 1.4999 0.0 0
M  V30 17 C 5.1961 3.75 0.0 0
M  V30 18 C 3.8971 1.5 0.0 0
M  V30 19 O 6.4951 -3.0 0.0 0
M  V30 20 O 3.8971 -3.0 0.0 0
M  V30 21 C 11.6913 4.4999 0.0 0
M  V30 22 C 14.2894 0.0 0.0 0
M  V30 23 C 12.9903 2.2499 0.0 0
M  V30 24 C 3.8971 -4.5 0.0 0
M  V30 25 C 11.6913 5.9999 0.0 0
M  V30 26 C 14.2894 1.4999 0.0 0
M  V30 27 C 2.598 -5.25 0.0 0
M  V30 28 C 15.5884 2.2499 0.0 0
M  V30 29 C 16.8874 1.4999 0.0 0
M  V30 30 C 15.5884 3.7499 0.0 0
M  V30 31 C 16.8874 0.0 0.0 0
M  V30 32 C 18.1865 2.2499 0.0 0
M  V30 33 C 16.8874 4.4999 0.0 0
M  V30 34 N 15.6739 -0.8816 0.0 0
M  V30 35 N 18.101 -0.8816 0.0 0
M  V30 36 C 18.1865 3.7499 0.0 0
M  V30 37 O 16.1374 -2.3082 0.0 0
M  V30 38 C 17.6374 -2.3082 0.0 0
M  V30 39 O 18.5191 -3.5217 0.0 0
M  V30 END ATOM
M  V30 BEGIN BOND
M  V30 1 2 1 2
M  V30 2 1 2 3
M  V30 3 1 2 4
M  V30 4 1 3 5
M  V30 5 1 3 6
M  V30 6 2 4 7
M  V30 7 1 4 8
M  V30 8 2 5 9
M  V30 9 1 5 10
M  V30 10 1 6 11
M  V30 11 1 7 12
M  V30 12 1 8 13
M  V30 13 1 10 14
M  V30 14 2 11 15
M  V30 15 1 11 16
M  V30 16 1 12 17
M  V30 17 1 12 18
M  V30 18 2 13 19
M  V30 19 1 13 20
M  V30 20 1 14 21
M  V30 21 1 15 22
M  V30 22 2 16 23
M  V30 23 1 20 24
M  V30 24 1 21 25
M  V30 25 2 22 26
M  V30 26 1 24 27
M  V30 27 1 26 28
M  V30 28 2 28 29
M  V30 29 1 28 30
M  V30 30 1 29 31
M  V30 31 1 29 32
M  V30 32 2 30 33
M  V30 33 2 31 34
M  V30 34 1 31 35
M  V30 35 2 32 36
M  V30 36 1 34 37
M  V30 37 1 35 38
M  V30 38 2 38 39
M  V30 39 1 7 9
M  V30 40 1 23 26
M  V30 41 1 33 36
M  V30 42 1 37 38
M  V30 END BOND
M  V30 END CTAB
M  END
>  <Molecule ChEMBL ID>
CHEMBL4546437

>  <Smiles>
CCCCc1nc(C(C)C)c(CC(=O)OCC)c(=O)n1Cc1ccc(-c2ccccc2-c2noc(=O)[nH]2)cc1

>  <IC50_nM>
440

>  <Assay Description>
Binding affinity to PPARgamma (unknown origin) by TR-FRET competitive binding assay

$$$$
CHEMBL121
Actelion Java MolfileCreator 2.0

  0  0  0  0  0  0              0 V3000
M  V30 BEGIN CTAB
M  V30 COUNTS 25 27 0 0 0
M  V30 BEGIN ATOM
M  V30 1 S 7.8987 0.0054 0.0 0
M  V30 2 C 8.8769 -0.2024 0.0 0
M  V30 3 C 7.7942 0.9999 0.0 0 CFG=2
M  V30 4 O 9.2836 -1.1159 0.0 0
M  V30 5 N 9.3769 0.6635 0.0 0
M  V30 6 C 8.7077 1.4067 0.0 0
M  V30 7 C 6.9282 1.4999 0.0 0
M  V30 8 O 8.9156 2.3848 0.0 0
M  V30 9 C 6.0621 0.9999 0.0 0
M  V30 10 C 5.1961 1.4999 0.0 0
M  V30 11 C 6.0621 0.0 0.0 0
M  V30 12 C 4.3301 0.9999 0.0 0
M  V30 13 C 5.1961 -0.5 0.0 0
M  V30 14 C 4.3301 0.0 0.0 0
M  V30 15 O 3.4641 -0.5 0.0 0
M  V30 16 C 2.598 0.0 0.0 0
M  V30 17 C 1.732 -0.5 0.0 0
M  V30 18 N 0.866 0.0 0.0 0
M  V30 19 C 0.866 1.0 0.0 0
M  V30 20 C 0.0 -0.5 0.0 0
M  V30 21 N 1.732 1.4999 0.0 0
M  V30 22 C 0.0 1.4999 0.0 0
M  V30 23 C 1.732 2.5 0.0 0
M  V30 24 C 0.0 2.5 0.0 0
M  V30 25 C 0.866 3.0 0.0 0
M  V30 END ATOM
M  V30 BEGIN BOND
M  V30 1 1 1 2
M  V30 2 1 1 3
M  V30 3 2 2 4
M  V30 4 1 2 5
M  V30 5 1 3 6
M  V30 6 1 3 7 CFG=1
M  V30 7 2 6 8
M  V30 8 1 7 9
M  V30 9 2 9 10
M  V30 10 1 9 11
M  V30 11 1 10 12
M  V30 12 2 11 13
M  V30 13 2 12 14
M  V30 14 1 14 15
M  V30 15 1 15 16
M  V30 16 1 16 17
M  V30 17 1 17 18
M  V30 18 1 18 19
M  V30 19 1 18 20
M  V30 20 2 19 21
M  V30 21 1 19 22
M  V30 22 1 21 23
M  V30 23 2 22 24
M  V30 24 2 23 25
M  V30 25 1 5 6
M  V30 26 1 13 14
M  V30 27 1 24 25
M  V30 END BOND
M  V30 BEGIN COLLECTION
M  V30 MDLV30/STERAC1 ATOMS=(1 3)
M  V30 END COLLECTION
M  V30 END CTAB
M  END
>  <Molecule ChEMBL ID>
CHEMBL121

>  <Smiles>
CN(CCOc1ccc(CC2SC(=O)NC2=O)cc1)c1ccccn1

>  <IC50_nM>
440

>  <Assay Description>
Receptor binding affinity to human Peroxisome proliferator activated receptor gamma against [3H]ragalitazar radioligand

$$$$
CHEMBL3699346
Actelion Java MolfileCreator 2.0

  0  0  0  0  0  0              0 V3000
M  V30 BEGIN CTAB
M  V30 COUNTS 43 47 0 0 0
M  V30 BEGIN ATOM
M  V30 1 O 11.8592 -3.5669 0.0 0
M  V30 2 C 10.8811 -3.7748 0.0 0
M  V30 3 O 10.212 -3.0316 0.0 0
M  V30 4 C 10.5721 -4.7258 0.0 0
M  V30 5 C 9.5939 -4.9337 0.0 0
M  V30 6 C 11.2412 -5.469 0.0 0
M  V30 7 C 8.9248 -4.1906 0.0 0
M  V30 8 C 9.2849 -5.8848 0.0 0
M  V30 9 C 10.9322 -6.42 0.0 0
M  V30 10 C 9.2338 -3.2395 0.0 0
M  V30 11 C 7.9466 -4.3985 0.0 0
M  V30 12 C 9.954 -6.6279 0.0 0
M  V30 13 C 8.5647 -2.4964 0.0 0
M  V30 14 C 7.2775 -3.6554 0.0 0
M  V30 15 C 7.5865 -2.7043 0.0 0
M  V30 16 C 6.9174 -1.9612 0.0 0
M  V30 17 N 5.9392 -2.1691 0.0 0
M  V30 18 C 5.1961 -1.4999 0.0 0
M  V30 19 C 5.5325 -3.0826 0.0 0
M  V30 20 C 4.3301 -1.9999 0.0 0
M  V30 21 C 5.1961 -0.4999 0.0 0
M  V30 22 C 4.538 -2.9781 0.0 0
M  V30 23 C 6.0325 -3.9487 0.0 0
M  V30 24 C 3.4641 -1.5 0.0 0
M  V30 25 C 4.3301 0.0 0.0 0
M  V30 26 C 3.8689 -3.7212 0.0 0
M  V30 27 C 3.4641 -0.5 0.0 0
M  V30 28 C 2.598 0.0 0.0 0
M  V30 29 O 2.598 1.0 0.0 0
M  V30 30 N 1.732 -0.5 0.0 0
M  V30 31 C 0.866 0.0 0.0 0 CFG=2
M  V30 32 C 0.866 1.0 0.0 0
M  V30 33 C 0.0 -0.5 0.0 0
M  V30 34 C 1.732 1.5 0.0 0
M  V30 35 C 0.0 1.4999 0.0 0
M  V30 36 C 1.732 2.4999 0.0 0
M  V30 37 C 0.0 2.4999 0.0 0
M  V30 38 C 0.866 2.9999 0.0 0
M  V30 39 O 0.866 3.9999 0.0 0
M  V30 40 C 0.0 4.5 0.0 0
M  V30 41 C -0.5 3.6339 0.0 0
M  V30 42 C -0.866 5.0 0.0 0
M  V30 43 C 0.4999 5.366 0.0 0
M  V30 END ATOM
M  V30 BEGIN BOND
M  V30 1 2 1 2
M  V30 2 1 2 3
M  V30 3 1 2 4
M  V30 4 2 4 5
M  V30 5 1 4 6
M  V30 6 1 5 7
M  V30 7 1 5 8
M  V30 8 2 6 9
M  V30 9 2 7 10
M  V30 10 1 7 11
M  V30 11 2 8 12
M  V30 12 1 10 13
M  V30 13 2 11 14
M  V30 14 2 13 15
M  V30 15 1 15 16
M  V30 16 1 16 17
M  V30 17 1 17 18
M  V30 18 1 17 19
M  V30 19 2 18 20
M  V30 20 1 18 21
M  V30 21 2 19 22
M  V30 22 1 19 23
M  V30 23 1 20 24
M  V30 24 2 21 25
M  V30 25 1 22 26
M  V30 26 2 24 27
M  V30 27 1 27 28
M  V30 28 2 28 29
M  V30 29 1 28 30
M  V30 30 1 30 31
M  V30 31 1 31 32
M  V30 32 1 31 33 CFG=1
M  V30 33 2 32 34
M  V30 34 1 32 35
M  V30 35 1 34 36
M  V30 36 2 35 37
M  V30 37 2 36 38
M  V30 38 1 38 39
M  V30 39 1 39 40
M  V30 40 1 40 41
M  V30 41 1 40 42
M  V30 42 1 40 43
M  V30 43 1 9 12
M  V30 44 1 14 15
M  V30 45 1 20 22
M  V30 46 1 25 27
M  V30 47 1 37 38
M  V30 END BOND
M  V30 BEGIN COLLECTION
M  V30 MDLV30/STEABS ATOMS=(1 31)
M  V30 END COLLECTION
M  V30 END CTAB
M  END
>  <Molecule ChEMBL ID>
CHEMBL3699346

>  <Smiles>
Cc1c(C)n(Cc2ccc(-c3ccccc3C(=O)O)cc2)c2ccc(C(=O)N[C@@H](C)c3ccc(OC(C)(C)C)cc3)cc12

>  <IC50_nM>
449

>  <Assay Description>
Lanthascreen Competitive Binding Assay: The assay was performed according to manufacturer protocol. A mixture of nM GST-PPARG-LBD, 5 nM Tb-GST-antibody, 5 nM Fluormone Pan-PPAR Green, and serial dilutions of the experimental compound, beginning at 10 ׬M downwards, was added to wells of black 384-well low-volume plates (Greiner) to a total volume of 18 ׬L. All dilutions were made in TR-FRET assay buffer C. DMSO at 2% final concentration was used as a no-ligand control. Experiment was performed in triplicate, and incubated for 2 hours in the dark prior to assay read in Perkin Elmer ViewLux ultra HTS microplate reader. FRET signal was measured by excitation at 340 nm and emission at 520 nm for fluorescein and 490 nm for terbium. Fold change over DMSO was calculated using GraphPad Prism Software (La Jolla, Calif.) by calculating 520 nm/490 nm ratio. Graphs were plotted as fold change of FRET signal for compound treatment over DMSO-only control.

$$$$
CHEMBL2037082
Actelion Java MolfileCreator 2.0

  0  0  0  0  0  0              0 V3000
M  V30 BEGIN CTAB
M  V30 COUNTS 33 36 0 0 0
M  V30 BEGIN ATOM
M  V30 1 O 9.2836 2.1159 0.0 0
M  V30 2 C 8.8769 1.2024 0.0 0
M  V30 3 O 7.8987 0.9945 0.0 0
M  V30 4 N 9.3769 0.3364 0.0 0
M  V30 5 C 7.7942 0.0 0.0 0 CFG=2
M  V30 6 C 8.7077 -0.4067 0.0 0
M  V30 7 C 6.9282 -0.5 0.0 0
M  V30 8 O 8.9156 -1.3848 0.0 0
M  V30 9 C 6.0621 0.0 0.0 0
M  V30 10 C 6.9282 -1.5 0.0 0
M  V30 11 C 5.1961 -0.5 0.0 0
M  V30 12 C 6.0621 -2.0 0.0 0
M  V30 13 O 4.3301 0.0 0.0 0
M  V30 14 C 5.1961 -1.5 0.0 0
M  V30 15 C 3.4641 -0.5 0.0 0
M  V30 16 C 2.598 0.0 0.0 0
M  V30 17 C 1.732 -0.5 0.0 0
M  V30 18 O 0.866 0.0 0.0 0
M  V30 19 C 0.0 -0.5 0.0 0
M  V30 20 C -0.866 0.0 0.0 0
M  V30 21 C 0.0 -1.4999 0.0 0
M  V30 22 C -1.732 -0.4999 0.0 0
M  V30 23 C -0.866 1.0 0.0 0
M  V30 24 C -0.866 -1.9999 0.0 0
M  V30 25 C -1.732 -1.4999 0.0 0
M  V30 26 C 0.0 1.5 0.0 0
M  V30 27 C -2.598 -1.9999 0.0 0
M  V30 28 C 0.0 2.5 0.0 0
M  V30 29 C -3.4641 -1.4999 0.0 0
M  V30 30 C -2.598 -2.9999 0.0 0
M  V30 31 C -4.3301 -1.9999 0.0 0
M  V30 32 C -3.4641 -3.4999 0.0 0
M  V30 33 C -4.3301 -2.9999 0.0 0
M  V30 END ATOM
M  V30 BEGIN BOND
M  V30 1 2 1 2
M  V30 2 1 2 3
M  V30 3 1 2 4
M  V30 4 1 3 5
M  V30 5 1 4 6
M  V30 6 1 5 7 CFG=3
M  V30 7 2 6 8
M  V30 8 2 7 9
M  V30 9 1 7 10
M  V30 10 1 9 11
M  V30 11 2 10 12
M  V30 12 1 11 13
M  V30 13 2 11 14
M  V30 14 1 13 15
M  V30 15 1 15 16
M  V30 16 1 16 17
M  V30 17 1 17 18
M  V30 18 1 18 19
M  V30 19 2 19 20
M  V30 20 1 19 21
M  V30 21 1 20 22
M  V30 22 1 20 23
M  V30 23 2 21 24
M  V30 24 2 22 25
M  V30 25 1 23 26
M  V30 26 1 25 27
M  V30 27 1 26 28
M  V30 28 2 27 29
M  V30 29 1 27 30
M  V30 30 1 29 31
M  V30 31 2 30 32
M  V30 32 2 31 33
M  V30 33 1 5 6
M  V30 34 1 12 14
M  V30 35 1 24 25
M  V30 36 1 32 33
M  V30 END BOND
M  V30 BEGIN COLLECTION
M  V30 MDLV30/STEABS ATOMS=(1 5)
M  V30 END COLLECTION
M  V30 END CTAB
M  END
>  <Molecule ChEMBL ID>
CHEMBL2037082

>  <Smiles>
CCCc1cc(-c2ccccc2)ccc1OCCCOc1cccc([C@@H]2OC(=O)NC2=O)c1

>  <IC50_nM>
449.78

>  <Assay Description>
Agonist activity at PPARgamma

$$$$
CHEMBL280293
Actelion Java MolfileCreator 2.0

  0  0  0  0  0  0              0 V3000
M  V30 BEGIN CTAB
M  V30 COUNTS 33 36 0 0 0
M  V30 BEGIN ATOM
M  V30 1 O 9.2836 2.1159 0.0 0
M  V30 2 C 8.8769 1.2024 0.0 0
M  V30 3 O 7.8987 0.9945 0.0 0
M  V30 4 N 9.3769 0.3364 0.0 0
M  V30 5 C 7.7942 0.0 0.0 0 CFG=1
M  V30 6 C 8.7077 -0.4067 0.0 0
M  V30 7 C 6.9282 -0.5 0.0 0
M  V30 8 O 8.9156 -1.3848 0.0 0
M  V30 9 C 6.0621 0.0 0.0 0
M  V30 10 C 6.9282 -1.5 0.0 0
M  V30 11 C 5.1961 -0.5 0.0 0
M  V30 12 C 6.0621 -2.0 0.0 0
M  V30 13 O 4.3301 0.0 0.0 0
M  V30 14 C 5.1961 -1.5 0.0 0
M  V30 15 C 3.4641 -0.5 0.0 0
M  V30 16 C 2.598 0.0 0.0 0
M  V30 17 C 1.732 -0.5 0.0 0
M  V30 18 O 0.866 0.0 0.0 0
M  V30 19 C 0.0 -0.5 0.0 0
M  V30 20 C -0.866 0.0 0.0 0
M  V30 21 C 0.0 -1.4999 0.0 0
M  V30 22 C -1.732 -0.4999 0.0 0
M  V30 23 C -0.866 1.0 0.0 0
M  V30 24 C -0.866 -1.9999 0.0 0
M  V30 25 C -1.732 -1.4999 0.0 0
M  V30 26 C 0.0 1.5 0.0 0
M  V30 27 C -2.598 -1.9999 0.0 0
M  V30 28 C 0.0 2.5 0.0 0
M  V30 29 C -3.4641 -1.4999 0.0 0
M  V30 30 C -2.598 -2.9999 0.0 0
M  V30 31 C -4.3301 -1.9999 0.0 0
M  V30 32 C -3.4641 -3.4999 0.0 0
M  V30 33 C -4.3301 -2.9999 0.0 0
M  V30 END ATOM
M  V30 BEGIN BOND
M  V30 1 2 1 2
M  V30 2 1 2 3
M  V30 3 1 2 4
M  V30 4 1 3 5
M  V30 5 1 4 6
M  V30 6 1 5 7 CFG=1
M  V30 7 2 6 8
M  V30 8 2 7 9
M  V30 9 1 7 10
M  V30 10 1 9 11
M  V30 11 2 10 12
M  V30 12 1 11 13
M  V30 13 2 11 14
M  V30 14 1 13 15
M  V30 15 1 15 16
M  V30 16 1 16 17
M  V30 17 1 17 18
M  V30 18 1 18 19
M  V30 19 2 19 20
M  V30 20 1 19 21
M  V30 21 1 20 22
M  V30 22 1 20 23
M  V30 23 2 21 24
M  V30 24 2 22 25
M  V30 25 1 23 26
M  V30 26 1 25 27
M  V30 27 1 26 28
M  V30 28 2 27 29
M  V30 29 1 27 30
M  V30 30 1 29 31
M  V30 31 2 30 32
M  V30 32 2 31 33
M  V30 33 1 5 6
M  V30 34 1 12 14
M  V30 35 1 24 25
M  V30 36 1 32 33
M  V30 END BOND
M  V30 BEGIN COLLECTION
M  V30 MDLV30/STERAC1 ATOMS=(1 5)
M  V30 END COLLECTION
M  V30 END CTAB
M  END
>  <Molecule ChEMBL ID>
CHEMBL280293

>  <Smiles>
CCCc1cc(-c2ccccc2)ccc1OCCCOc1cccc(C2OC(=O)NC2=O)c1

>  <IC50_nM>
450

>  <Assay Description>
In vitro binding affinity against human peroxisome proliferator activated receptor gamma

$$$$
CHEMBL1783052
Actelion Java MolfileCreator 2.0

  0  0  0  0  0  0              0 V3000
M  V30 BEGIN CTAB
M  V30 COUNTS 33 36 0 0 0
M  V30 BEGIN ATOM
M  V30 1 O 9.2836 2.1159 0.0 0
M  V30 2 C 8.8769 1.2024 0.0 0
M  V30 3 O 7.8987 0.9945 0.0 0
M  V30 4 N 9.3769 0.3364 0.0 0
M  V30 5 C 7.7942 0.0 0.0 0 CFG=1
M  V30 6 C 8.7077 -0.4067 0.0 0
M  V30 7 C 6.9282 -0.5 0.0 0
M  V30 8 O 8.9156 -1.3848 0.0 0
M  V30 9 C 6.0621 0.0 0.0 0
M  V30 10 C 6.9282 -1.5 0.0 0
M  V30 11 C 5.1961 -0.5 0.0 0
M  V30 12 C 6.0621 -2.0 0.0 0
M  V30 13 O 4.3301 0.0 0.0 0
M  V30 14 C 5.1961 -1.5 0.0 0
M  V30 15 C 3.4641 -0.5 0.0 0
M  V30 16 C 2.598 0.0 0.0 0
M  V30 17 C 1.732 -0.5 0.0 0
M  V30 18 O 0.866 0.0 0.0 0
M  V30 19 C 0.0 -0.5 0.0 0
M  V30 20 C -0.866 0.0 0.0 0
M  V30 21 C 0.0 -1.4999 0.0 0
M  V30 22 C -1.732 -0.4999 0.0 0
M  V30 23 C -0.866 1.0 0.0 0
M  V30 24 C -0.866 -1.9999 0.0 0
M  V30 25 C -1.732 -1.4999 0.0 0
M  V30 26 C 0.0 1.5 0.0 0
M  V30 27 C -2.598 -1.9999 0.0 0
M  V30 28 C 0.0 2.5 0.0 0
M  V30 29 C -3.4641 -1.4999 0.0 0
M  V30 30 C -2.598 -2.9999 0.0 0
M  V30 31 C -4.3301 -1.9999 0.0 0
M  V30 32 C -3.4641 -3.4999 0.0 0
M  V30 33 C -4.3301 -2.9999 0.0 0
M  V30 END ATOM
M  V30 BEGIN BOND
M  V30 1 2 1 2
M  V30 2 1 2 3
M  V30 3 1 2 4
M  V30 4 1 3 5
M  V30 5 1 4 6
M  V30 6 1 5 7 CFG=1
M  V30 7 2 6 8
M  V30 8 2 7 9
M  V30 9 1 7 10
M  V30 10 1 9 11
M  V30 11 2 10 12
M  V30 12 1 11 13
M  V30 13 2 11 14
M  V30 14 1 13 15
M  V30 15 1 15 16
M  V30 16 1 16 17
M  V30 17 1 17 18
M  V30 18 1 18 19
M  V30 19 2 19 20
M  V30 20 1 19 21
M  V30 21 1 20 22
M  V30 22 1 20 23
M  V30 23 2 21 24
M  V30 24 2 22 25
M  V30 25 1 23 26
M  V30 26 1 25 27
M  V30 27 1 26 28
M  V30 28 2 27 29
M  V30 29 1 27 30
M  V30 30 1 29 31
M  V30 31 2 30 32
M  V30 32 2 31 33
M  V30 33 1 5 6
M  V30 34 1 12 14
M  V30 35 1 24 25
M  V30 36 1 32 33
M  V30 END BOND
M  V30 BEGIN COLLECTION
M  V30 MDLV30/STEABS ATOMS=(1 5)
M  V30 END COLLECTION
M  V30 END CTAB
M  END
>  <Molecule ChEMBL ID>
CHEMBL1783052

>  <Smiles>
CCCc1cc(-c2ccccc2)ccc1OCCCOc1cccc([C@H]2OC(=O)NC2=O)c1

>  <IC50_nM>
450

>  <Assay Description>
Displacement of radio-labeled full agonist from PPARgamma receptor

$$$$
CHEMBL3398449
Actelion Java MolfileCreator 2.0

  0  0  0  0  0  0              0 V3000
M  V30 BEGIN CTAB
M  V30 COUNTS 37 41 0 0 0
M  V30 BEGIN ATOM
M  V30 1 O 8.5653 -3.9478 0.0 0
M  V30 2 C 7.8222 -3.2787 0.0 0
M  V30 3 O 8.0301 -2.3006 0.0 0
M  V30 4 C 6.8711 -3.5877 0.0 0 CFG=2
M  V30 5 C 6.0621 -3.0 0.0 0 CFG=1
M  V30 6 C 6.5621 -4.5388 0.0 0
M  V30 7 C 5.2531 -3.5877 0.0 0
M  V30 8 C 6.0621 -2.0 0.0 0
M  V30 9 N 5.5621 -4.5388 0.0 0
M  V30 10 C 5.1961 -1.4999 0.0 0
M  V30 11 C 4.9743 -5.3478 0.0 0
M  V30 12 C 5.1961 -0.5 0.0 0
M  V30 13 C 4.3301 -1.9999 0.0 0
M  V30 14 N 3.9798 -5.2433 0.0 0
M  V30 15 N 5.3811 -6.2614 0.0 0
M  V30 16 C 4.3301 0.0 0.0 0
M  V30 17 C 3.4641 -1.5 0.0 0
M  V30 18 C 3.392 -6.0523 0.0 0
M  V30 19 C 4.7933 -7.0704 0.0 0
M  V30 20 C 3.4641 -0.5 0.0 0
M  V30 21 C 3.7988 -6.9658 0.0 0
M  V30 22 C 2.3975 -5.9478 0.0 0
M  V30 23 O 2.598 0.0 0.0 0
M  V30 24 C 1.732 -0.5 0.0 0
M  V30 25 C 0.866 0.0 0.0 0
M  V30 26 C 0.0 -0.5 0.0 0
M  V30 27 N -0.9135 -0.0932 0.0 0
M  V30 28 C -0.1045 -1.4945 0.0 0
M  V30 29 C -1.5826 -0.8364 0.0 0
M  V30 30 O -1.0826 -1.7024 0.0 0
M  V30 31 C 0.6386 -2.1636 0.0 0
M  V30 32 C -2.5771 -0.7318 0.0 0
M  V30 33 C -2.9839 0.1816 0.0 0
M  V30 34 C -3.1649 -1.5408 0.0 0
M  V30 35 C -3.9784 0.2861 0.0 0
M  V30 36 C -4.1595 -1.4363 0.0 0
M  V30 37 C -4.5662 -0.5228 0.0 0
M  V30 END ATOM
M  V30 BEGIN BOND
M  V30 1 2 1 2
M  V30 2 1 2 3
M  V30 3 1 4 2 CFG=1
M  V30 4 1 4 5
M  V30 5 1 4 6
M  V30 6 1 5 7
M  V30 7 1 5 8 CFG=1
M  V30 8 1 6 9
M  V30 9 1 8 10
M  V30 10 1 9 11
M  V30 11 2 10 12
M  V30 12 1 10 13
M  V30 13 2 11 14
M  V30 14 1 11 15
M  V30 15 1 12 16
M  V30 16 2 13 17
M  V30 17 1 14 18
M  V30 18 2 15 19
M  V30 19 2 16 20
M  V30 20 2 18 21
M  V30 21 1 18 22
M  V30 22 1 20 23
M  V30 23 1 23 24
M  V30 24 1 24 25
M  V30 25 1 25 26
M  V30 26 1 26 27
M  V30 27 2 26 28
M  V30 28 2 27 29
M  V30 29 1 28 30
M  V30 30 1 28 31
M  V30 31 1 29 32
M  V30 32 2 32 33
M  V30 33 1 32 34
M  V30 34 1 33 35
M  V30 35 2 34 36
M  V30 36 2 35 37
M  V30 37 1 7 9
M  V30 38 1 17 20
M  V30 39 1 19 21
M  V30 40 1 29 30
M  V30 41 1 36 37
M  V30 END BOND
M  V30 BEGIN COLLECTION
M  V30 MDLV30/STEABS ATOMS=(2 4 5)
M  V30 END COLLECTION
M  V30 END CTAB
M  END
>  <Molecule ChEMBL ID>
CHEMBL3398449

>  <Smiles>
Cc1ccnc(N2C[C@@H](Cc3ccc(OCCc4nc(-c5ccccc5)oc4C)cc3)[C@@H](C(=O)O)C2)n1

>  <IC50_nM>
450

>  <Assay Description>
Binding affinity to PPARgamma (unknown origin) using fluorescein-tagged dual PPARalpha/gamma activator by homogeneous fluorescence polarization binding assay

$$$$
CHEMBL121
Actelion Java MolfileCreator 2.0

  0  0  0  0  0  0              0 V3000
M  V30 BEGIN CTAB
M  V30 COUNTS 25 27 0 0 0
M  V30 BEGIN ATOM
M  V30 1 S 7.8987 0.0054 0.0 0
M  V30 2 C 8.8769 -0.2024 0.0 0
M  V30 3 C 7.7942 0.9999 0.0 0 CFG=2
M  V30 4 O 9.2836 -1.1159 0.0 0
M  V30 5 N 9.3769 0.6635 0.0 0
M  V30 6 C 8.7077 1.4067 0.0 0
M  V30 7 C 6.9282 1.4999 0.0 0
M  V30 8 O 8.9156 2.3848 0.0 0
M  V30 9 C 6.0621 0.9999 0.0 0
M  V30 10 C 5.1961 1.4999 0.0 0
M  V30 11 C 6.0621 0.0 0.0 0
M  V30 12 C 4.3301 0.9999 0.0 0
M  V30 13 C 5.1961 -0.5 0.0 0
M  V30 14 C 4.3301 0.0 0.0 0
M  V30 15 O 3.4641 -0.5 0.0 0
M  V30 16 C 2.598 0.0 0.0 0
M  V30 17 C 1.732 -0.5 0.0 0
M  V30 18 N 0.866 0.0 0.0 0
M  V30 19 C 0.866 1.0 0.0 0
M  V30 20 C 0.0 -0.5 0.0 0
M  V30 21 N 1.732 1.4999 0.0 0
M  V30 22 C 0.0 1.4999 0.0 0
M  V30 23 C 1.732 2.5 0.0 0
M  V30 24 C 0.0 2.5 0.0 0
M  V30 25 C 0.866 3.0 0.0 0
M  V30 END ATOM
M  V30 BEGIN BOND
M  V30 1 1 1 2
M  V30 2 1 1 3
M  V30 3 2 2 4
M  V30 4 1 2 5
M  V30 5 1 3 6
M  V30 6 1 3 7 CFG=1
M  V30 7 2 6 8
M  V30 8 1 7 9
M  V30 9 2 9 10
M  V30 10 1 9 11
M  V30 11 1 10 12
M  V30 12 2 11 13
M  V30 13 2 12 14
M  V30 14 1 14 15
M  V30 15 1 15 16
M  V30 16 1 16 17
M  V30 17 1 17 18
M  V30 18 1 18 19
M  V30 19 1 18 20
M  V30 20 2 19 21
M  V30 21 1 19 22
M  V30 22 1 21 23
M  V30 23 2 22 24
M  V30 24 2 23 25
M  V30 25 1 5 6
M  V30 26 1 13 14
M  V30 27 1 24 25
M  V30 END BOND
M  V30 BEGIN COLLECTION
M  V30 MDLV30/STERAC1 ATOMS=(1 3)
M  V30 END COLLECTION
M  V30 END CTAB
M  END
>  <Molecule ChEMBL ID>
CHEMBL121

>  <Smiles>
CN(CCOc1ccc(CC2SC(=O)NC2=O)cc1)c1ccccn1

>  <IC50_nM>
450

>  <Assay Description>
Displacement of radio labeled 2(S)-(2-benzoyl-phenylamino)-3-{4-[1,1-ditritio-2-(5-methyl-2-phenyl-oxazol-4-yl)-ethoxy]-phenyl}-propionic acid from GST-fused human PPARgamma expressed in Escherichia coli BL21 cells by scintillation proximity assay

$$$$
CHEMBL50885
Actelion Java MolfileCreator 2.0

  0  0  0  0  0  0              0 V3000
M  V30 BEGIN CTAB
M  V30 COUNTS 36 39 0 0 0
M  V30 BEGIN ATOM
M  V30 1 S 7.8987 -2.9945 0.0 0
M  V30 2 C 8.8769 -3.2024 0.0 0
M  V30 3 C 7.7942 -2.0 0.0 0 CFG=2
M  V30 4 O 9.2836 -4.1159 0.0 0
M  V30 5 N 9.3769 -2.3364 0.0 0
M  V30 6 C 6.9282 -1.5 0.0 0
M  V30 7 C 8.7077 -1.5932 0.0 0
M  V30 8 C 6.9282 -0.5 0.0 0
M  V30 9 C 6.0621 -2.0 0.0 0
M  V30 10 O 8.9156 -0.6151 0.0 0
M  V30 11 C 6.0621 0.0 0.0 0
M  V30 12 C 5.1961 -1.5 0.0 0
M  V30 13 C 5.1961 -0.5 0.0 0
M  V30 14 O 4.3301 0.0 0.0 0
M  V30 15 C 3.4641 -0.5 0.0 0
M  V30 16 C 2.598 0.0 0.0 0
M  V30 17 C 1.732 -0.5 0.0 0
M  V30 18 O 0.866 0.0 0.0 0
M  V30 19 C 0.0 -0.5 0.0 0
M  V30 20 C -0.866 0.0 0.0 0
M  V30 21 C 0.0 -1.4999 0.0 0
M  V30 22 C -1.732 -0.4999 0.0 0
M  V30 23 C -0.866 1.0 0.0 0
M  V30 24 C -0.866 -1.9999 0.0 0
M  V30 25 C -1.732 -1.4999 0.0 0
M  V30 26 C 0.0 1.5 0.0 0
M  V30 27 O -2.598 -1.9999 0.0 0
M  V30 28 C 0.0 2.5 0.0 0
M  V30 29 C -2.598 -2.9999 0.0 0
M  V30 30 C -3.4641 -3.4999 0.0 0
M  V30 31 C -1.732 -3.4999 0.0 0
M  V30 32 C -3.4641 -4.4999 0.0 0
M  V30 33 C -1.732 -4.4999 0.0 0
M  V30 34 C -2.598 -4.9999 0.0 0
M  V30 35 O -2.598 -5.9999 0.0 0
M  V30 36 C -1.732 -6.4999 0.0 0
M  V30 END ATOM
M  V30 BEGIN BOND
M  V30 1 1 1 2
M  V30 2 1 1 3
M  V30 3 2 2 4
M  V30 4 1 2 5
M  V30 5 1 3 6 CFG=3
M  V30 6 1 3 7
M  V30 7 2 6 8
M  V30 8 1 6 9
M  V30 9 2 7 10
M  V30 10 1 8 11
M  V30 11 2 9 12
M  V30 12 2 11 13
M  V30 13 1 13 14
M  V30 14 1 14 15
M  V30 15 1 15 16
M  V30 16 1 16 17
M  V30 17 1 17 18
M  V30 18 1 18 19
M  V30 19 2 19 20
M  V30 20 1 19 21
M  V30 21 1 20 22
M  V30 22 1 20 23
M  V30 23 2 21 24
M  V30 24 2 22 25
M  V30 25 1 23 26
M  V30 26 1 25 27
M  V30 27 1 26 28
M  V30 28 1 27 29
M  V30 29 2 29 30
M  V30 30 1 29 31
M  V30 31 1 30 32
M  V30 32 2 31 33
M  V30 33 2 32 34
M  V30 34 1 34 35
M  V30 35 1 35 36
M  V30 36 1 5 7
M  V30 37 1 12 13
M  V30 38 1 24 25
M  V30 39 1 33 34
M  V30 END BOND
M  V30 BEGIN COLLECTION
M  V30 MDLV30/STERAC1 ATOMS=(1 3)
M  V30 END COLLECTION
M  V30 END CTAB
M  END
>  <Molecule ChEMBL ID>
CHEMBL50885

>  <Smiles>
CCCc1cc(Oc2ccc(OC)cc2)ccc1OCCCOc1ccc(C2SC(=O)NC2=O)cc1

>  <IC50_nM>
460

>  <Assay Description>
In vitro binding affinity against human PPAR gamma (peroxisome proliferator-activated gamma receptor)

$$$$
CHEMBL209563
Actelion Java MolfileCreator 2.0

  0  0  0  0  0  0              0 V3000
M  V30 BEGIN CTAB
M  V30 COUNTS 33 35 0 0 0
M  V30 BEGIN ATOM
M  V30 1 F 9.1393 -2.451 0.0 0
M  V30 2 C 8.1882 -2.76 0.0 0
M  V30 3 F 8.4972 -3.7111 0.0 0
M  V30 4 F 7.2372 -3.069 0.0 0
M  V30 5 C 7.8792 -1.809 0.0 0
M  V30 6 N 8.467 -1.0 0.0 0
M  V30 7 C 6.9282 -1.5 0.0 0
M  V30 8 O 7.8792 -0.1909 0.0 0
M  V30 9 C 6.9282 -0.5 0.0 0
M  V30 10 C 6.0621 -2.0 0.0 0
M  V30 11 C 6.0621 0.0 0.0 0
M  V30 12 C 5.1961 -1.4999 0.0 0
M  V30 13 C 5.1961 -0.5 0.0 0
M  V30 14 C 6.0621 0.9999 0.0 0
M  V30 15 O 4.3301 0.0 0.0 0
M  V30 16 C 6.9282 1.4999 0.0 0
M  V30 17 C 3.4641 -0.5 0.0 0
M  V30 18 C 6.9282 2.4999 0.0 0
M  V30 19 C 2.598 0.0 0.0 0
M  V30 20 C 1.732 -0.5 0.0 0
M  V30 21 N 0.866 0.0 0.0 0
M  V30 22 C 0.866 1.0 0.0 0
M  V30 23 C 0.0 -0.5 0.0 0
M  V30 24 C 1.732 1.5 0.0 0
M  V30 25 C 0.0 1.4999 0.0 0
M  V30 26 C 1.732 2.5 0.0 0
M  V30 27 C 2.598 1.0 0.0 0
M  V30 28 C 0.0 2.4999 0.0 0
M  V30 29 C 0.866 3.0 0.0 0
M  V30 30 C 0.866 3.9999 0.0 0
M  V30 31 C 1.732 4.5 0.0 0
M  V30 32 O 2.598 4.0 0.0 0
M  V30 33 O 1.732 5.5 0.0 0
M  V30 END ATOM
M  V30 BEGIN BOND
M  V30 1 1 1 2
M  V30 2 1 2 3
M  V30 3 1 2 4
M  V30 4 1 2 5
M  V30 5 2 5 6
M  V30 6 1 5 7
M  V30 7 1 6 8
M  V30 8 2 7 9
M  V30 9 1 7 10
M  V30 10 1 9 11
M  V30 11 2 10 12
M  V30 12 2 11 13
M  V30 13 1 11 14
M  V30 14 1 13 15
M  V30 15 1 14 16
M  V30 16 1 15 17
M  V30 17 1 16 18
M  V30 18 1 17 19
M  V30 19 1 19 20
M  V30 20 1 20 21
M  V30 21 1 21 22
M  V30 22 1 21 23
M  V30 23 2 22 24
M  V30 24 1 22 25
M  V30 25 1 24 26
M  V30 26 1 24 27
M  V30 27 2 25 28
M  V30 28 2 26 29
M  V30 29 1 29 30
M  V30 30 1 30 31
M  V30 31 2 31 32
M  V30 32 1 31 33
M  V30 33 1 8 9
M  V30 34 1 12 13
M  V30 35 1 28 29
M  V30 END BOND
M  V30 END CTAB
M  END
>  <Molecule ChEMBL ID>
CHEMBL209563

>  <Smiles>
CCCc1c(OCCCN(C)c2ccc(CC(=O)O)cc2C)ccc2c(C(F)(F)F)noc12

>  <IC50_nM>
460

>  <Assay Description>
Inhibition of PPAR gamma

$$$$
CHEMBL209563
Actelion Java MolfileCreator 2.0

  0  0  0  0  0  0              0 V3000
M  V30 BEGIN CTAB
M  V30 COUNTS 33 35 0 0 0
M  V30 BEGIN ATOM
M  V30 1 F 9.1393 -2.451 0.0 0
M  V30 2 C 8.1882 -2.76 0.0 0
M  V30 3 F 8.4972 -3.7111 0.0 0
M  V30 4 F 7.2372 -3.069 0.0 0
M  V30 5 C 7.8792 -1.809 0.0 0
M  V30 6 N 8.467 -1.0 0.0 0
M  V30 7 C 6.9282 -1.5 0.0 0
M  V30 8 O 7.8792 -0.1909 0.0 0
M  V30 9 C 6.9282 -0.5 0.0 0
M  V30 10 C 6.0621 -2.0 0.0 0
M  V30 11 C 6.0621 0.0 0.0 0
M  V30 12 C 5.1961 -1.4999 0.0 0
M  V30 13 C 5.1961 -0.5 0.0 0
M  V30 14 C 6.0621 0.9999 0.0 0
M  V30 15 O 4.3301 0.0 0.0 0
M  V30 16 C 6.9282 1.4999 0.0 0
M  V30 17 C 3.4641 -0.5 0.0 0
M  V30 18 C 6.9282 2.4999 0.0 0
M  V30 19 C 2.598 0.0 0.0 0
M  V30 20 C 1.732 -0.5 0.0 0
M  V30 21 N 0.866 0.0 0.0 0
M  V30 22 C 0.866 1.0 0.0 0
M  V30 23 C 0.0 -0.5 0.0 0
M  V30 24 C 1.732 1.5 0.0 0
M  V30 25 C 0.0 1.4999 0.0 0
M  V30 26 C 1.732 2.5 0.0 0
M  V30 27 C 2.598 1.0 0.0 0
M  V30 28 C 0.0 2.4999 0.0 0
M  V30 29 C 0.866 3.0 0.0 0
M  V30 30 C 0.866 3.9999 0.0 0
M  V30 31 C 1.732 4.5 0.0 0
M  V30 32 O 2.598 4.0 0.0 0
M  V30 33 O 1.732 5.5 0.0 0
M  V30 END ATOM
M  V30 BEGIN BOND
M  V30 1 1 1 2
M  V30 2 1 2 3
M  V30 3 1 2 4
M  V30 4 1 2 5
M  V30 5 2 5 6
M  V30 6 1 5 7
M  V30 7 1 6 8
M  V30 8 2 7 9
M  V30 9 1 7 10
M  V30 10 1 9 11
M  V30 11 2 10 12
M  V30 12 2 11 13
M  V30 13 1 11 14
M  V30 14 1 13 15
M  V30 15 1 14 16
M  V30 16 1 15 17
M  V30 17 1 16 18
M  V30 18 1 17 19
M  V30 19 1 19 20
M  V30 20 1 20 21
M  V30 21 1 21 22
M  V30 22 1 21 23
M  V30 23 2 22 24
M  V30 24 1 22 25
M  V30 25 1 24 26
M  V30 26 1 24 27
M  V30 27 2 25 28
M  V30 28 2 26 29
M  V30 29 1 29 30
M  V30 30 1 30 31
M  V30 31 2 31 32
M  V30 32 1 31 33
M  V30 33 1 8 9
M  V30 34 1 12 13
M  V30 35 1 28 29
M  V30 END BOND
M  V30 END CTAB
M  END
>  <Molecule ChEMBL ID>
CHEMBL209563

>  <Smiles>
CCCc1c(OCCCN(C)c2ccc(CC(=O)O)cc2C)ccc2c(C(F)(F)F)noc12

>  <IC50_nM>
460

>  <Assay Description>
Agonist activity at PPARgamma

$$$$
CHEMBL209563
Actelion Java MolfileCreator 2.0

  0  0  0  0  0  0              0 V3000
M  V30 BEGIN CTAB
M  V30 COUNTS 33 35 0 0 0
M  V30 BEGIN ATOM
M  V30 1 F 9.1393 -2.451 0.0 0
M  V30 2 C 8.1882 -2.76 0.0 0
M  V30 3 F 8.4972 -3.7111 0.0 0
M  V30 4 F 7.2372 -3.069 0.0 0
M  V30 5 C 7.8792 -1.809 0.0 0
M  V30 6 N 8.467 -1.0 0.0 0
M  V30 7 C 6.9282 -1.5 0.0 0
M  V30 8 O 7.8792 -0.1909 0.0 0
M  V30 9 C 6.9282 -0.5 0.0 0
M  V30 10 C 6.0621 -2.0 0.0 0
M  V30 11 C 6.0621 0.0 0.0 0
M  V30 12 C 5.1961 -1.4999 0.0 0
M  V30 13 C 5.1961 -0.5 0.0 0
M  V30 14 C 6.0621 0.9999 0.0 0
M  V30 15 O 4.3301 0.0 0.0 0
M  V30 16 C 6.9282 1.4999 0.0 0
M  V30 17 C 3.4641 -0.5 0.0 0
M  V30 18 C 6.9282 2.4999 0.0 0
M  V30 19 C 2.598 0.0 0.0 0
M  V30 20 C 1.732 -0.5 0.0 0
M  V30 21 N 0.866 0.0 0.0 0
M  V30 22 C 0.866 1.0 0.0 0
M  V30 23 C 0.0 -0.5 0.0 0
M  V30 24 C 1.732 1.5 0.0 0
M  V30 25 C 0.0 1.4999 0.0 0
M  V30 26 C 1.732 2.5 0.0 0
M  V30 27 C 2.598 1.0 0.0 0
M  V30 28 C 0.0 2.4999 0.0 0
M  V30 29 C 0.866 3.0 0.0 0
M  V30 30 C 0.866 3.9999 0.0 0
M  V30 31 C 1.732 4.5 0.0 0
M  V30 32 O 2.598 4.0 0.0 0
M  V30 33 O 1.732 5.5 0.0 0
M  V30 END ATOM
M  V30 BEGIN BOND
M  V30 1 1 1 2
M  V30 2 1 2 3
M  V30 3 1 2 4
M  V30 4 1 2 5
M  V30 5 2 5 6
M  V30 6 1 5 7
M  V30 7 1 6 8
M  V30 8 2 7 9
M  V30 9 1 7 10
M  V30 10 1 9 11
M  V30 11 2 10 12
M  V30 12 2 11 13
M  V30 13 1 11 14
M  V30 14 1 13 15
M  V30 15 1 14 16
M  V30 16 1 15 17
M  V30 17 1 16 18
M  V30 18 1 17 19
M  V30 19 1 19 20
M  V30 20 1 20 21
M  V30 21 1 21 22
M  V30 22 1 21 23
M  V30 23 2 22 24
M  V30 24 1 22 25
M  V30 25 1 24 26
M  V30 26 1 24 27
M  V30 27 2 25 28
M  V30 28 2 26 29
M  V30 29 1 29 30
M  V30 30 1 30 31
M  V30 31 2 31 32
M  V30 32 1 31 33
M  V30 33 1 8 9
M  V30 34 1 12 13
M  V30 35 1 28 29
M  V30 END BOND
M  V30 END CTAB
M  END
>  <Molecule ChEMBL ID>
CHEMBL209563

>  <Smiles>
CCCc1c(OCCCN(C)c2ccc(CC(=O)O)cc2C)ccc2c(C(F)(F)F)noc12

>  <IC50_nM>
460.26

>  <Assay Description>
Agonist activity at PPARgamma

$$$$
CHEMBL24458
Actelion Java MolfileCreator 2.0

  0  0  0  0  0  0              0 V3000
M  V30 BEGIN CTAB
M  V30 COUNTS 30 32 0 0 0
M  V30 BEGIN ATOM
M  V30 1 S 7.0327 -1.4945 0.0 0
M  V30 2 C 8.0108 -1.7024 0.0 0
M  V30 3 C 6.9282 -0.5 0.0 0 CFG=2
M  V30 4 O 8.4176 -2.6159 0.0 0
M  V30 5 N 8.5108 -0.8364 0.0 0
M  V30 6 C 7.8417 -0.0932 0.0 0
M  V30 7 C 6.0621 0.0 0.0 0
M  V30 8 O 8.0496 0.8848 0.0 0
M  V30 9 C 5.1961 -0.5 0.0 0
M  V30 10 C 4.3301 0.0 0.0 0
M  V30 11 C 5.1961 -1.4999 0.0 0
M  V30 12 C 3.4641 -0.5 0.0 0
M  V30 13 C 4.3301 -1.9999 0.0 0
M  V30 14 C 3.4641 -1.4999 0.0 0
M  V30 15 C 2.598 0.0 0.0 0
M  V30 16 O 2.598 -2.0 0.0 0
M  V30 17 O 2.598 1.0 0.0 0
M  V30 18 N 1.732 -0.5 0.0 0
M  V30 19 C 2.598 -3.0 0.0 0
M  V30 20 C 0.866 0.0 0.0 0
M  V30 21 C 0.0 -0.5 0.0 0
M  V30 22 C -0.866 0.0 0.0 0
M  V30 23 C 0.0 -1.4999 0.0 0
M  V30 24 C -1.732 -0.4999 0.0 0
M  V30 25 C -0.866 -1.9999 0.0 0
M  V30 26 C -1.732 -1.4999 0.0 0
M  V30 27 C -2.598 -1.9999 0.0 0
M  V30 28 F -2.098 -2.866 0.0 0
M  V30 29 F -3.4641 -2.4999 0.0 0
M  V30 30 F -3.098 -1.1339 0.0 0
M  V30 END ATOM
M  V30 BEGIN BOND
M  V30 1 1 1 2
M  V30 2 1 1 3
M  V30 3 2 2 4
M  V30 4 1 2 5
M  V30 5 1 3 6
M  V30 6 1 3 7 CFG=1
M  V30 7 2 6 8
M  V30 8 1 7 9
M  V30 9 2 9 10
M  V30 10 1 9 11
M  V30 11 1 10 12
M  V30 12 2 11 13
M  V30 13 2 12 14
M  V30 14 1 12 15
M  V30 15 1 14 16
M  V30 16 2 15 17
M  V30 17 1 15 18
M  V30 18 1 16 19
M  V30 19 1 18 20
M  V30 20 1 20 21
M  V30 21 2 21 22
M  V30 22 1 21 23
M  V30 23 1 22 24
M  V30 24 2 23 25
M  V30 25 2 24 26
M  V30 26 1 26 27
M  V30 27 1 27 28
M  V30 28 1 27 29
M  V30 29 1 27 30
M  V30 30 1 5 6
M  V30 31 1 13 14
M  V30 32 1 25 26
M  V30 END BOND
M  V30 BEGIN COLLECTION
M  V30 MDLV30/STERAC1 ATOMS=(1 3)
M  V30 END COLLECTION
M  V30 END CTAB
M  END
>  <Molecule ChEMBL ID>
CHEMBL24458

>  <Smiles>
COc1ccc(CC2SC(=O)NC2=O)cc1C(=O)NCc1ccc(C(F)(F)F)cc1

>  <IC50_nM>
463

>  <Assay Description>
Binding affinity at human peroxidase proliferator activated receptor gamma (hPPARgamma)

$$$$
CHEMBL4097121
Actelion Java MolfileCreator 2.0

  0  0  0  0  0  0              0 V3000
M  V30 BEGIN CTAB
M  V30 COUNTS 35 38 0 0 0
M  V30 BEGIN ATOM
M  V30 1 S 5.1961 -0.75 0.0 0
M  V30 2 O 4.4461 -2.049 0.0 0
M  V30 3 O 5.9461 -2.049 0.0 0
M  V30 4 N 3.8971 0.0 0.0 0
M  V30 5 C 6.4951 0.0 0.0 0
M  V30 6 C 2.598 -0.75 0.0 0
M  V30 7 C 7.7942 -0.75 0.0 0
M  V30 8 C 6.4951 1.5 0.0 0
M  V30 9 O 2.598 -2.25 0.0 0
M  V30 10 N 1.299 0.0 0.0 0
M  V30 11 C 9.0932 0.0 0.0 0
M  V30 12 C 7.7942 2.25 0.0 0
M  V30 13 C 0.0 -0.75 0.0 0
M  V30 14 C 9.0932 1.5 0.0 0
M  V30 15 C -1.299 0.0 0.0 0
M  V30 16 C 0.0 -2.25 0.0 0
M  V30 17 N 10.3923 2.25 0.0 0
M  V30 18 C -2.598 -0.75 0.0 0
M  V30 19 C -1.299 -3.0 0.0 0
M  V30 20 C 10.3923 3.75 0.0 0
M  V30 21 C -2.598 -2.25 0.0 0
M  V30 22 O 9.0932 4.5 0.0 0
M  V30 23 C 11.6913 4.5 0.0 0
M  V30 24 N 11.6913 6.0 0.0 0
M  V30 25 C 12.9903 6.75 0.0 0
M  V30 26 C 10.3923 6.75 0.0 0
M  V30 27 O 14.2894 6.0 0.0 0
M  V30 28 C 12.9903 8.25 0.0 0
M  V30 29 N 10.3923 8.25 0.0 0
M  V30 30 C 9.0932 6.0 0.0 0
M  V30 31 C 11.6913 9.0 0.0 0
M  V30 32 C 14.2894 9.0 0.0 0
M  V30 33 C 11.6913 10.5 0.0 0
M  V30 34 C 14.2894 10.5 0.0 0
M  V30 35 C 12.9903 11.25 0.0 0
M  V30 END ATOM
M  V30 BEGIN BOND
M  V30 1 2 1 2
M  V30 2 2 1 3
M  V30 3 1 1 4
M  V30 4 1 1 5
M  V30 5 1 4 6
M  V30 6 2 5 7
M  V30 7 1 5 8
M  V30 8 2 6 9
M  V30 9 1 6 10
M  V30 10 1 7 11
M  V30 11 2 8 12
M  V30 12 1 10 13
M  V30 13 2 11 14
M  V30 14 1 13 15
M  V30 15 1 13 16
M  V30 16 1 14 17
M  V30 17 1 15 18
M  V30 18 1 16 19
M  V30 19 1 17 20
M  V30 20 1 18 21
M  V30 21 2 20 22
M  V30 22 1 20 23
M  V30 23 1 23 24
M  V30 24 1 24 25
M  V30 25 1 24 26
M  V30 26 2 25 27
M  V30 27 1 25 28
M  V30 28 2 26 29
M  V30 29 1 26 30
M  V30 30 2 28 31
M  V30 31 1 28 32
M  V30 32 1 31 33
M  V30 33 2 32 34
M  V30 34 2 33 35
M  V30 35 1 12 14
M  V30 36 1 19 21
M  V30 37 1 29 31
M  V30 38 1 34 35
M  V30 END BOND
M  V30 END CTAB
M  END
>  <Molecule ChEMBL ID>
CHEMBL4097121

>  <Smiles>
Cc1nc2ccccc2c(=O)n1CC(=O)Nc1ccc(S(=O)(=O)NC(=O)NC2CCCCC2)cc1

>  <IC50_nM>
464

>  <Assay Description>
Displacement of fluormone-PPARgamma green from GST-tagged PPARgamma-LBD (unknown origin) by fluorescence polarization assay

$$$$
CHEMBL373142
Actelion Java MolfileCreator 2.0

  0  0  0  0  0  0              0 V3000
M  V30 BEGIN CTAB
M  V30 COUNTS 34 37 0 0 0
M  V30 BEGIN ATOM
M  V30 1 F 4.8174 -4.7021 0.0 0
M  V30 2 C 5.0253 -3.7239 0.0 0
M  V30 3 F 4.0471 -3.516 0.0 0
M  V30 4 F 5.2332 -2.7458 0.0 0
M  V30 5 O 6.0034 -3.9318 0.0 0
M  V30 6 C 6.6726 -3.1887 0.0 0
M  V30 7 C 6.3636 -2.2376 0.0 0
M  V30 8 C 7.6507 -3.3966 0.0 0
M  V30 9 C 7.0327 -1.4945 0.0 0
M  V30 10 C 8.3198 -2.6534 0.0 0
M  V30 11 C 8.0108 -1.7024 0.0 0
M  V30 12 C 6.9282 -0.5 0.0 0
M  V30 13 N 8.5108 -0.8364 0.0 0
M  V30 14 C 7.8417 -0.0932 0.0 0
M  V30 15 C 6.0621 0.0 0.0 0
M  V30 16 C 9.5054 -0.7318 0.0 0
M  V30 17 C 8.0496 0.8848 0.0 0
M  V30 18 C 5.1961 -0.5 0.0 0
M  V30 19 N 10.0931 -1.5408 0.0 0
M  V30 20 C 9.9121 0.1816 0.0 0
M  V30 21 C 4.3301 0.0 0.0 0
M  V30 22 C 5.1961 -1.4999 0.0 0
M  V30 23 C 11.0877 -1.4363 0.0 0
M  V30 24 C 10.9066 0.2861 0.0 0
M  V30 25 C 3.4641 -0.5 0.0 0
M  V30 26 C 4.3301 -1.9999 0.0 0
M  V30 27 C 11.4944 -0.5228 0.0 0
M  V30 28 O 2.598 0.0 0.0 0
M  V30 29 C 3.4641 -1.4999 0.0 0
M  V30 30 C 1.732 -0.5 0.0 0 CFG=2
M  V30 31 C 0.866 0.0 0.0 0
M  V30 32 C 1.732 -1.5 0.0 0
M  V30 33 O 0.866 1.0 0.0 0
M  V30 34 O 0.0 -0.5 0.0 0
M  V30 END ATOM
M  V30 BEGIN BOND
M  V30 1 1 1 2
M  V30 2 1 2 3
M  V30 3 1 2 4
M  V30 4 1 2 5
M  V30 5 1 5 6
M  V30 6 2 6 7
M  V30 7 1 6 8
M  V30 8 1 7 9
M  V30 9 2 8 10
M  V30 10 2 9 11
M  V30 11 1 9 12
M  V30 12 1 11 13
M  V30 13 2 12 14
M  V30 14 1 12 15
M  V30 15 1 13 16
M  V30 16 1 14 17
M  V30 17 1 15 18
M  V30 18 2 16 19
M  V30 19 1 16 20
M  V30 20 2 18 21
M  V30 21 1 18 22
M  V30 22 1 19 23
M  V30 23 2 20 24
M  V30 24 1 21 25
M  V30 25 2 22 26
M  V30 26 2 23 27
M  V30 27 1 25 28
M  V30 28 2 25 29
M  V30 29 1 28 30
M  V30 30 1 30 31
M  V30 31 1 30 32 CFG=1
M  V30 32 2 31 33
M  V30 33 1 31 34
M  V30 34 1 10 11
M  V30 35 1 13 14
M  V30 36 1 24 27
M  V30 37 1 26 29
M  V30 END BOND
M  V30 BEGIN COLLECTION
M  V30 MDLV30/STEABS ATOMS=(1 30)
M  V30 END COLLECTION
M  V30 END CTAB
M  END
>  <Molecule ChEMBL ID>
CHEMBL373142

>  <Smiles>
Cc1c(Cc2cccc(O[C@@H](C)C(=O)O)c2)c2cc(OC(F)(F)F)ccc2n1-c1ccccn1

>  <IC50_nM>
466

>  <Assay Description>
Inhibition of human peroxisome proliferator activated receptor gamma binding

$$$$
CHEMBL465718
Actelion Java MolfileCreator 2.0

  0  0  0  0  0  0              0 V3000
M  V30 BEGIN CTAB
M  V30 COUNTS 26 28 0 0 0
M  V30 BEGIN ATOM
M  V30 1 O 6.4952 -3.0 0.0 0
M  V30 2 C 7.7942 -2.25 0.0 0
M  V30 3 O 9.0932 -3.0 0.0 0
M  V30 4 C 7.7942 -0.75 0.0 0
M  V30 5 C 9.0932 0.0 0.0 0
M  V30 6 C 6.4952 0.0 0.0 0
M  V30 7 O 10.3923 -0.75 0.0 0
M  V30 8 C 9.0932 1.5 0.0 0
M  V30 9 C 6.4952 1.5 0.0 0
M  V30 10 C 5.1961 -0.75 0.0 0
M  V30 11 C 7.7942 2.25 0.0 0
M  V30 12 C 10.3923 2.25 0.0 0 CFG=2
M  V30 13 C 3.8971 0.0 0.0 0
M  V30 14 O 7.7942 3.75 0.0 0
M  V30 15 C 11.6913 1.5 0.0 0
M  V30 16 C 10.3923 3.75 0.0 0 CFG=2
M  V30 17 C 2.598 -0.75 0.0 0
M  V30 18 C 9.0932 4.5 0.0 0
M  V30 19 C 12.9904 2.25 0.0 0
M  V30 20 C 11.6913 4.5 0.0 0
M  V30 21 C 1.299 0.0 0.0 0
M  V30 22 C 9.8432 5.799 0.0 0
M  V30 23 C 8.3432 5.799 0.0 0
M  V30 24 C 12.9904 3.75 0.0 0
M  V30 25 C 14.2894 1.5 0.0 0
M  V30 26 C 0.0 -0.75 0.0 0
M  V30 END ATOM
M  V30 BEGIN BOND
M  V30 1 2 1 2
M  V30 2 1 2 3
M  V30 3 1 2 4
M  V30 4 2 4 5
M  V30 5 1 4 6
M  V30 6 1 5 7
M  V30 7 1 5 8
M  V30 8 2 6 9
M  V30 9 1 6 10
M  V30 10 2 8 11
M  V30 11 1 8 12
M  V30 12 1 10 13
M  V30 13 1 11 14
M  V30 14 1 12 15 CFG=1
M  V30 15 1 12 16
M  V30 16 1 13 17
M  V30 17 1 14 18
M  V30 18 2 15 19
M  V30 19 1 16 20 CFG=3
M  V30 20 1 17 21
M  V30 21 1 18 22
M  V30 22 1 18 23
M  V30 23 1 19 24
M  V30 24 1 19 25
M  V30 25 1 21 26
M  V30 26 1 9 11
M  V30 27 1 16 18
M  V30 28 1 20 24
M  V30 END BOND
M  V30 BEGIN COLLECTION
M  V30 MDLV30/STEABS ATOMS=(2 12 16)
M  V30 END COLLECTION
M  V30 END CTAB
M  END
>  <Molecule ChEMBL ID>
CHEMBL465718

>  <Smiles>
CCCCCc1cc2c(c(O)c1C(=O)O)[C@@H]1C=C(C)CC[C@H]1C(C)(C)O2

>  <IC50_nM>
470

>  <Assay Description>
Agonist activity at PPARgamma (unknown origin)

$$$$
CHEMBL3425797
Actelion Java MolfileCreator 2.0

  0  0  0  0  0  0              0 V3000
M  V30 BEGIN CTAB
M  V30 COUNTS 25 27 0 0 0
M  V30 BEGIN ATOM
M  V30 1 O 9.0932 1.4999 0.0 0
M  V30 2 C 9.0932 0.0 0.0 0
M  V30 3 C 7.7942 -0.75 0.0 0
M  V30 4 C 10.3923 -0.75 0.0 0
M  V30 5 C 7.7942 -2.25 0.0 0
M  V30 6 C 6.4951 0.0 0.0 0
M  V30 7 C 10.3923 -2.25 0.0 0 CFG=1
M  V30 8 O 9.0932 -3.0 0.0 0
M  V30 9 C 6.4951 -3.0 0.0 0
M  V30 10 C 5.1961 -0.75 0.0 0
M  V30 11 C 11.6913 -3.0 0.0 0
M  V30 12 C 5.1961 -2.2499 0.0 0
M  V30 13 C 3.8971 0.0 0.0 0
M  V30 14 C 11.6913 -4.5 0.0 0
M  V30 15 C 12.9903 -2.25 0.0 0
M  V30 16 O 3.8971 -2.9999 0.0 0
M  V30 17 C 2.598 -0.75 0.0 0
M  V30 18 C 12.9903 -5.25 0.0 0
M  V30 19 C 14.2894 -3.0 0.0 0
M  V30 20 C 3.8971 -4.4999 0.0 0
M  V30 21 C 1.299 0.0 0.0 0
M  V30 22 C 14.2894 -4.5 0.0 0
M  V30 23 C 1.299 1.5 0.0 0
M  V30 24 C 0.0 -0.75 0.0 0
M  V30 25 O 15.5884 -5.25 0.0 0
M  V30 END ATOM
M  V30 BEGIN BOND
M  V30 1 2 1 2
M  V30 2 1 2 3
M  V30 3 1 2 4
M  V30 4 2 3 5
M  V30 5 1 3 6
M  V30 6 1 4 7
M  V30 7 1 5 8
M  V30 8 1 5 9
M  V30 9 2 6 10
M  V30 10 1 7 11 CFG=3
M  V30 11 2 9 12
M  V30 12 1 10 13
M  V30 13 2 11 14
M  V30 14 1 11 15
M  V30 15 1 12 16
M  V30 16 1 13 17
M  V30 17 1 14 18
M  V30 18 2 15 19
M  V30 19 1 16 20
M  V30 20 2 17 21
M  V30 21 2 18 22
M  V30 22 1 21 23
M  V30 23 1 21 24
M  V30 24 1 22 25
M  V30 25 1 7 8
M  V30 26 1 10 12
M  V30 27 1 19 22
M  V30 END BOND
M  V30 BEGIN COLLECTION
M  V30 MDLV30/STEABS ATOMS=(1 7)
M  V30 END COLLECTION
M  V30 END CTAB
M  END
>  <Molecule ChEMBL ID>
CHEMBL3425797

>  <Smiles>
COc1cc2c(cc1CC=C(C)C)C(=O)C[C@H](c1ccc(O)cc1)O2

>  <IC50_nM>
471.2

>  <Assay Description>
Agonist activity at PPARgamma ligand binding domain (unknown origin) using fluormone Pan-PPAR green tracer by TR-FRET assay based competitive ligand binding method

$$$$
CHEMBL2037009
Actelion Java MolfileCreator 2.0

  0  0  0  0  0  0              0 V3000
M  V30 BEGIN CTAB
M  V30 COUNTS 35 38 0 0 0
M  V30 BEGIN ATOM
M  V30 1 S 7.8987 -2.9945 0.0 0
M  V30 2 C 8.8769 -3.2024 0.0 0
M  V30 3 C 7.7942 -2.0 0.0 0 CFG=1
M  V30 4 O 9.2836 -4.1159 0.0 0
M  V30 5 N 9.3769 -2.3364 0.0 0
M  V30 6 C 6.9282 -1.5 0.0 0
M  V30 7 C 8.7077 -1.5932 0.0 0
M  V30 8 C 6.9282 -0.5 0.0 0
M  V30 9 C 6.0621 -2.0 0.0 0
M  V30 10 O 8.9156 -0.6151 0.0 0
M  V30 11 C 6.0621 0.0 0.0 0
M  V30 12 C 5.1961 -1.5 0.0 0
M  V30 13 C 5.1961 -0.5 0.0 0
M  V30 14 O 4.3301 0.0 0.0 0
M  V30 15 C 3.4641 -0.5 0.0 0
M  V30 16 C 2.598 0.0 0.0 0
M  V30 17 C 1.732 -0.5 0.0 0
M  V30 18 O 0.866 0.0 0.0 0
M  V30 19 C 0.0 -0.5 0.0 0
M  V30 20 C -0.866 0.0 0.0 0
M  V30 21 C 0.0 -1.4999 0.0 0
M  V30 22 C -1.732 -0.4999 0.0 0
M  V30 23 C -0.866 1.0 0.0 0
M  V30 24 C -0.866 -1.9999 0.0 0
M  V30 25 C -1.732 -1.4999 0.0 0
M  V30 26 C 0.0 1.5 0.0 0
M  V30 27 O -2.598 -1.9999 0.0 0
M  V30 28 C 0.866 0.9999 0.0 0
M  V30 29 C 0.0 2.5 0.0 0
M  V30 30 C -2.598 -2.9999 0.0 0
M  V30 31 C -3.4641 -3.4999 0.0 0
M  V30 32 C -1.732 -3.4999 0.0 0
M  V30 33 C -3.4641 -4.4999 0.0 0
M  V30 34 C -1.732 -4.4999 0.0 0
M  V30 35 C -2.598 -4.9999 0.0 0
M  V30 END ATOM
M  V30 BEGIN BOND
M  V30 1 1 1 2
M  V30 2 1 1 3
M  V30 3 2 2 4
M  V30 4 1 2 5
M  V30 5 1 3 6 CFG=1
M  V30 6 1 3 7
M  V30 7 2 6 8
M  V30 8 1 6 9
M  V30 9 2 7 10
M  V30 10 1 8 11
M  V30 11 2 9 12
M  V30 12 2 11 13
M  V30 13 1 13 14
M  V30 14 1 14 15
M  V30 15 1 15 16
M  V30 16 1 16 17
M  V30 17 1 17 18
M  V30 18 1 18 19
M  V30 19 2 19 20
M  V30 20 1 19 21
M  V30 21 1 20 22
M  V30 22 1 20 23
M  V30 23 2 21 24
M  V30 24 2 22 25
M  V30 25 1 23 26
M  V30 26 1 25 27
M  V30 27 1 26 28
M  V30 28 1 26 29
M  V30 29 1 27 30
M  V30 30 2 30 31
M  V30 31 1 30 32
M  V30 32 1 31 33
M  V30 33 2 32 34
M  V30 34 2 33 35
M  V30 35 1 5 7
M  V30 36 1 12 13
M  V30 37 1 24 25
M  V30 38 1 34 35
M  V30 END BOND
M  V30 BEGIN COLLECTION
M  V30 MDLV30/STEABS ATOMS=(1 3)
M  V30 END COLLECTION
M  V30 END CTAB
M  END
>  <Molecule ChEMBL ID>
CHEMBL2037009

>  <Smiles>
CC(C)Cc1cc(Oc2ccccc2)ccc1OCCCOc1ccc([C@@H]2SC(=O)NC2=O)cc1

>  <IC50_nM>
479.73

>  <Assay Description>
Agonist activity at PPARgamma

$$$$
CHEMBL2037009
Actelion Java MolfileCreator 2.0

  0  0  0  0  0  0              0 V3000
M  V30 BEGIN CTAB
M  V30 COUNTS 35 38 0 0 0
M  V30 BEGIN ATOM
M  V30 1 S 7.8987 -2.9945 0.0 0
M  V30 2 C 8.8769 -3.2024 0.0 0
M  V30 3 C 7.7942 -2.0 0.0 0 CFG=1
M  V30 4 O 9.2836 -4.1159 0.0 0
M  V30 5 N 9.3769 -2.3364 0.0 0
M  V30 6 C 6.9282 -1.5 0.0 0
M  V30 7 C 8.7077 -1.5932 0.0 0
M  V30 8 C 6.9282 -0.5 0.0 0
M  V30 9 C 6.0621 -2.0 0.0 0
M  V30 10 O 8.9156 -0.6151 0.0 0
M  V30 11 C 6.0621 0.0 0.0 0
M  V30 12 C 5.1961 -1.5 0.0 0
M  V30 13 C 5.1961 -0.5 0.0 0
M  V30 14 O 4.3301 0.0 0.0 0
M  V30 15 C 3.4641 -0.5 0.0 0
M  V30 16 C 2.598 0.0 0.0 0
M  V30 17 C 1.732 -0.5 0.0 0
M  V30 18 O 0.866 0.0 0.0 0
M  V30 19 C 0.0 -0.5 0.0 0
M  V30 20 C -0.866 0.0 0.0 0
M  V30 21 C 0.0 -1.4999 0.0 0
M  V30 22 C -1.732 -0.4999 0.0 0
M  V30 23 C -0.866 1.0 0.0 0
M  V30 24 C -0.866 -1.9999 0.0 0
M  V30 25 C -1.732 -1.4999 0.0 0
M  V30 26 C 0.0 1.5 0.0 0
M  V30 27 O -2.598 -1.9999 0.0 0
M  V30 28 C 0.866 0.9999 0.0 0
M  V30 29 C 0.0 2.5 0.0 0
M  V30 30 C -2.598 -2.9999 0.0 0
M  V30 31 C -3.4641 -3.4999 0.0 0
M  V30 32 C -1.732 -3.4999 0.0 0
M  V30 33 C -3.4641 -4.4999 0.0 0
M  V30 34 C -1.732 -4.4999 0.0 0
M  V30 35 C -2.598 -4.9999 0.0 0
M  V30 END ATOM
M  V30 BEGIN BOND
M  V30 1 1 1 2
M  V30 2 1 1 3
M  V30 3 2 2 4
M  V30 4 1 2 5
M  V30 5 1 3 6 CFG=1
M  V30 6 1 3 7
M  V30 7 2 6 8
M  V30 8 1 6 9
M  V30 9 2 7 10
M  V30 10 1 8 11
M  V30 11 2 9 12
M  V30 12 2 11 13
M  V30 13 1 13 14
M  V30 14 1 14 15
M  V30 15 1 15 16
M  V30 16 1 16 17
M  V30 17 1 17 18
M  V30 18 1 18 19
M  V30 19 2 19 20
M  V30 20 1 19 21
M  V30 21 1 20 22
M  V30 22 1 20 23
M  V30 23 2 21 24
M  V30 24 2 22 25
M  V30 25 1 23 26
M  V30 26 1 25 27
M  V30 27 1 26 28
M  V30 28 1 26 29
M  V30 29 1 27 30
M  V30 30 2 30 31
M  V30 31 1 30 32
M  V30 32 1 31 33
M  V30 33 2 32 34
M  V30 34 2 33 35
M  V30 35 1 5 7
M  V30 36 1 12 13
M  V30 37 1 24 25
M  V30 38 1 34 35
M  V30 END BOND
M  V30 BEGIN COLLECTION
M  V30 MDLV30/STEABS ATOMS=(1 3)
M  V30 END COLLECTION
M  V30 END CTAB
M  END
>  <Molecule ChEMBL ID>
CHEMBL2037009

>  <Smiles>
CC(C)Cc1cc(Oc2ccccc2)ccc1OCCCOc1ccc([C@@H]2SC(=O)NC2=O)cc1

>  <IC50_nM>
480

>  <Assay Description>
Agonist activity at PPARgamma

$$$$
CHEMBL50572
Actelion Java MolfileCreator 2.0

  0  0  0  0  0  0              0 V3000
M  V30 BEGIN CTAB
M  V30 COUNTS 35 38 0 0 0
M  V30 BEGIN ATOM
M  V30 1 S 7.8987 -2.9945 0.0 0
M  V30 2 C 8.8769 -3.2024 0.0 0
M  V30 3 C 7.7942 -2.0 0.0 0 CFG=2
M  V30 4 O 9.2836 -4.1159 0.0 0
M  V30 5 N 9.3769 -2.3364 0.0 0
M  V30 6 C 6.9282 -1.5 0.0 0
M  V30 7 C 8.7077 -1.5932 0.0 0
M  V30 8 C 6.9282 -0.5 0.0 0
M  V30 9 C 6.0621 -2.0 0.0 0
M  V30 10 O 8.9156 -0.6151 0.0 0
M  V30 11 C 6.0621 0.0 0.0 0
M  V30 12 C 5.1961 -1.5 0.0 0
M  V30 13 C 5.1961 -0.5 0.0 0
M  V30 14 O 4.3301 0.0 0.0 0
M  V30 15 C 3.4641 -0.5 0.0 0
M  V30 16 C 2.598 0.0 0.0 0
M  V30 17 C 1.732 -0.5 0.0 0
M  V30 18 O 0.866 0.0 0.0 0
M  V30 19 C 0.0 -0.5 0.0 0
M  V30 20 C -0.866 0.0 0.0 0
M  V30 21 C 0.0 -1.4999 0.0 0
M  V30 22 C -1.732 -0.4999 0.0 0
M  V30 23 C -0.866 1.0 0.0 0
M  V30 24 C -0.866 -1.9999 0.0 0
M  V30 25 C -1.732 -1.4999 0.0 0
M  V30 26 C 0.0 1.5 0.0 0
M  V30 27 O -2.598 -1.9999 0.0 0
M  V30 28 C 0.866 0.9999 0.0 0
M  V30 29 C 0.0 2.5 0.0 0
M  V30 30 C -2.598 -2.9999 0.0 0
M  V30 31 C -3.4641 -3.4999 0.0 0
M  V30 32 C -1.732 -3.4999 0.0 0
M  V30 33 C -3.4641 -4.4999 0.0 0
M  V30 34 C -1.732 -4.4999 0.0 0
M  V30 35 C -2.598 -4.9999 0.0 0
M  V30 END ATOM
M  V30 BEGIN BOND
M  V30 1 1 1 2
M  V30 2 1 1 3
M  V30 3 2 2 4
M  V30 4 1 2 5
M  V30 5 1 3 6 CFG=3
M  V30 6 1 3 7
M  V30 7 2 6 8
M  V30 8 1 6 9
M  V30 9 2 7 10
M  V30 10 1 8 11
M  V30 11 2 9 12
M  V30 12 2 11 13
M  V30 13 1 13 14
M  V30 14 1 14 15
M  V30 15 1 15 16
M  V30 16 1 16 17
M  V30 17 1 17 18
M  V30 18 1 18 19
M  V30 19 2 19 20
M  V30 20 1 19 21
M  V30 21 1 20 22
M  V30 22 1 20 23
M  V30 23 2 21 24
M  V30 24 2 22 25
M  V30 25 1 23 26
M  V30 26 1 25 27
M  V30 27 1 26 28
M  V30 28 1 26 29
M  V30 29 1 27 30
M  V30 30 2 30 31
M  V30 31 1 30 32
M  V30 32 1 31 33
M  V30 33 2 32 34
M  V30 34 2 33 35
M  V30 35 1 5 7
M  V30 36 1 12 13
M  V30 37 1 24 25
M  V30 38 1 34 35
M  V30 END BOND
M  V30 BEGIN COLLECTION
M  V30 MDLV30/STERAC1 ATOMS=(1 3)
M  V30 END COLLECTION
M  V30 END CTAB
M  END
>  <Molecule ChEMBL ID>
CHEMBL50572

>  <Smiles>
CC(C)Cc1cc(Oc2ccccc2)ccc1OCCCOc1ccc(C2SC(=O)NC2=O)cc1

>  <IC50_nM>
480

>  <Assay Description>
In vitro binding affinity against human PPAR gamma (peroxisome proliferator-activated gamma receptor)

$$$$
CHEMBL395191
Actelion Java MolfileCreator 2.0

  0  0  0  0  0  0              0 V3000
M  V30 BEGIN CTAB
M  V30 COUNTS 41 45 0 0 0
M  V30 BEGIN ATOM
M  V30 1 O 5.1961 2.25 0.0 0
M  V30 2 C 3.8971 1.5 0.0 0
M  V30 3 O 2.598 2.25 0.0 0
M  V30 4 C 3.8971 0.0 0.0 0
M  V30 5 N 2.598 -0.75 0.0 0
M  V30 6 C 2.598 -2.25 0.0 0
M  V30 7 C 1.299 0.0 0.0 0
M  V30 8 C 3.8971 -3.0 0.0 0
M  V30 9 C 0.0 -0.75 0.0 0
M  V30 10 C 5.1961 -2.2499 0.0 0
M  V30 11 C 3.8971 -4.4999 0.0 0
M  V30 12 C -1.299 0.0 0.0 0
M  V30 13 C 0.0 -2.2499 0.0 0
M  V30 14 C 6.4951 -2.9999 0.0 0
M  V30 15 C 5.1961 -5.2499 0.0 0
M  V30 16 C -2.598 -0.7499 0.0 0
M  V30 17 C -1.299 -2.9999 0.0 0
M  V30 18 O 7.7942 -2.2499 0.0 0
M  V30 19 C 6.4951 -4.4999 0.0 0
M  V30 20 C -2.598 -2.2499 0.0 0
M  V30 21 C 9.0932 -2.9999 0.0 0
M  V30 22 O -3.8971 -2.9999 0.0 0
M  V30 23 C 10.3923 -2.2499 0.0 0
M  V30 24 C 9.0932 -4.4999 0.0 0
M  V30 25 C -3.8971 -4.4999 0.0 0
M  V30 26 C 11.6913 -2.9999 0.0 0
M  V30 27 C 10.3923 -5.2499 0.0 0
M  V30 28 C -5.1961 -5.2499 0.0 0
M  V30 29 C 11.6913 -4.4999 0.0 0
M  V30 30 C -5.1961 -6.7499 0.0 0
M  V30 31 N -6.4096 -7.6316 0.0 0
M  V30 32 C -3.9826 -7.6316 0.0 0
M  V30 33 C -5.9461 -9.0582 0.0 0
M  V30 34 O -4.4461 -9.0582 0.0 0
M  V30 35 C -2.556 -7.1681 0.0 0
M  V30 36 C -6.8278 -10.2717 0.0 0
M  V30 37 C -8.3196 -10.1149 0.0 0
M  V30 38 C -6.2177 -11.6421 0.0 0
M  V30 39 C -9.2012 -11.3285 0.0 0
M  V30 40 C -7.0994 -12.8556 0.0 0
M  V30 41 C -8.5911 -12.6988 0.0 0
M  V30 END ATOM
M  V30 BEGIN BOND
M  V30 1 2 1 2
M  V30 2 1 2 3
M  V30 3 1 2 4
M  V30 4 1 4 5
M  V30 5 1 5 6
M  V30 6 1 5 7
M  V30 7 1 6 8
M  V30 8 1 7 9
M  V30 9 2 8 10
M  V30 10 1 8 11
M  V30 11 2 9 12
M  V30 12 1 9 13
M  V30 13 1 10 14
M  V30 14 2 11 15
M  V30 15 1 12 16
M  V30 16 2 13 17
M  V30 17 1 14 18
M  V30 18 2 14 19
M  V30 19 2 16 20
M  V30 20 1 18 21
M  V30 21 1 20 22
M  V30 22 2 21 23
M  V30 23 1 21 24
M  V30 24 1 22 25
M  V30 25 1 23 26
M  V30 26 2 24 27
M  V30 27 1 25 28
M  V30 28 2 26 29
M  V30 29 1 28 30
M  V30 30 1 30 31
M  V30 31 2 30 32
M  V30 32 2 31 33
M  V30 33 1 32 34
M  V30 34 1 32 35
M  V30 35 1 33 36
M  V30 36 2 36 37
M  V30 37 1 36 38
M  V30 38 1 37 39
M  V30 39 2 38 40
M  V30 40 2 39 41
M  V30 41 1 15 19
M  V30 42 1 17 20
M  V30 43 1 27 29
M  V30 44 1 33 34
M  V30 45 1 40 41
M  V30 END BOND
M  V30 END CTAB
M  END
>  <Molecule ChEMBL ID>
CHEMBL395191

>  <Smiles>
Cc1oc(-c2ccccc2)nc1CCOc1ccc(CN(CC(=O)O)Cc2cccc(Oc3ccccc3)c2)cc1

>  <IC50_nM>
480

>  <Assay Description>
Displacement of fluorescein labeled ligand from PPARgamma receptor by fluorescence polarization assay

$$$$
CHEMBL2338476
Actelion Java MolfileCreator 2.0

  0  0  0  0  0  0              0 V3000
M  V30 BEGIN CTAB
M  V30 COUNTS 30 33 0 0 0
M  V30 BEGIN ATOM
M  V30 1 Cl 2.598 2.25 0.0 0
M  V30 2 C 3.8971 1.5 0.0 0
M  V30 3 C 3.8971 0.0 0.0 0
M  V30 4 C 5.1961 2.25 0.0 0
M  V30 5 S 2.598 -0.75 0.0 0
M  V30 6 C 5.1961 -0.75 0.0 0
M  V30 7 C 6.4951 1.5 0.0 0
M  V30 8 O 1.848 -2.049 0.0 0
M  V30 9 O 3.348 -2.049 0.0 0
M  V30 10 N 1.299 0.0 0.0 0
M  V30 11 C 6.4951 0.0 0.0 0
M  V30 12 Cl 7.7942 2.25 0.0 0
M  V30 13 C 0.0 -0.75 0.0 0
M  V30 14 C -1.299 0.0 0.0 0
M  V30 15 C 0.0 -2.25 0.0 0
M  V30 16 C -2.598 -0.75 0.0 0
M  V30 17 C -1.299 -3.0 0.0 0
M  V30 18 Cl -3.8971 0.0 0.0 0
M  V30 19 C -2.598 -2.25 0.0 0
M  V30 20 O -3.8971 -3.0 0.0 0
M  V30 21 C -3.8971 -4.5 0.0 0
M  V30 22 C -5.1961 -5.25 0.0 0
M  V30 23 C -2.598 -5.25 0.0 0
M  V30 24 C -5.1961 -6.75 0.0 0
M  V30 25 C -2.598 -6.75 0.0 0
M  V30 26 C -3.8971 -7.5 0.0 0
M  V30 27 C -6.4951 -7.5 0.0 0
M  V30 28 C -3.8971 -9.0 0.0 0
M  V30 29 C -6.4951 -9.0 0.0 0
M  V30 30 C -5.1961 -9.75 0.0 0
M  V30 END ATOM
M  V30 BEGIN BOND
M  V30 1 1 1 2
M  V30 2 2 2 3
M  V30 3 1 2 4
M  V30 4 1 3 5
M  V30 5 1 3 6
M  V30 6 2 4 7
M  V30 7 2 5 8
M  V30 8 2 5 9
M  V30 9 1 5 10
M  V30 10 2 6 11
M  V30 11 1 7 12
M  V30 12 1 10 13
M  V30 13 2 13 14
M  V30 14 1 13 15
M  V30 15 1 14 16
M  V30 16 2 15 17
M  V30 17 1 16 18
M  V30 18 2 16 19
M  V30 19 1 19 20
M  V30 20 1 20 21
M  V30 21 2 21 22
M  V30 22 1 21 23
M  V30 23 1 22 24
M  V30 24 2 23 25
M  V30 25 1 24 26
M  V30 26 2 24 27
M  V30 27 2 26 28
M  V30 28 1 27 29
M  V30 29 1 28 30
M  V30 30 1 7 11
M  V30 31 1 17 19
M  V30 32 1 25 26
M  V30 33 2 29 30
M  V30 END BOND
M  V30 END CTAB
M  END
>  <Molecule ChEMBL ID>
CHEMBL2338476

>  <Smiles>
O=S(=O)(Nc1ccc(Oc2ccc3ccccc3c2)c(Cl)c1)c1ccc(Cl)cc1Cl

>  <IC50_nM>
480

>  <Assay Description>
Displacement of [3H]-rosiglitazone from GST-tagged PPARgammaLBD (unknown origin) after 1 hr by scintillation proximity assay

$$$$
CHEMBL2324298
Actelion Java MolfileCreator 2.0

  0  0  0  0  0  0              0 V3000
M  V30 BEGIN CTAB
M  V30 COUNTS 29 32 0 0 0
M  V30 BEGIN ATOM
M  V30 1 Br 6.8689 2.232 0.0 0
M  V30 2 C 7.3689 1.366 0.0 0
M  V30 3 C 6.8689 0.5 0.0 0
M  V30 4 C 8.3689 1.366 0.0 0
M  V30 5 C 5.8689 0.5 0.0 0
M  V30 6 C 7.3689 -0.366 0.0 0
M  V30 7 C 8.8689 0.5 0.0 0
M  V30 8 O 5.2811 1.309 0.0 0
M  V30 9 N 5.2811 -0.309 0.0 0
M  V30 10 C 8.3689 -0.366 0.0 0
M  V30 11 C 4.3301 1.0 0.0 0
M  V30 12 C 4.3301 0.0 0.0 0
M  V30 13 C 3.4641 1.4999 0.0 0
M  V30 14 C 3.4641 -0.5 0.0 0
M  V30 15 C 2.598 0.9999 0.0 0
M  V30 16 C 2.598 0.0 0.0 0
M  V30 17 N 1.732 -0.5 0.0 0
M  V30 18 C 0.866 0.0 0.0 0
M  V30 19 O 0.866 1.0 0.0 0
M  V30 20 C 0.0 -0.5 0.0 0
M  V30 21 C -0.866 0.0 0.0 0
M  V30 22 C 0.0 -1.4999 0.0 0
M  V30 23 Cl -0.866 1.0 0.0 0
M  V30 24 C -1.732 -0.4999 0.0 0
M  V30 25 C -0.866 -1.9999 0.0 0
M  V30 26 C -1.732 -1.4999 0.0 0
M  V30 27 N -0.866 -2.9999 0.0 0 CHG=1
M  V30 28 O -1.732 -3.4999 0.0 0
M  V30 29 O 0.0 -3.4999 0.0 0 CHG=-1
M  V30 END ATOM
M  V30 BEGIN BOND
M  V30 1 1 1 2
M  V30 2 2 2 3
M  V30 3 1 2 4
M  V30 4 1 3 5
M  V30 5 1 3 6
M  V30 6 2 4 7
M  V30 7 1 5 8
M  V30 8 2 5 9
M  V30 9 2 6 10
M  V30 10 1 8 11
M  V30 11 1 9 12
M  V30 12 1 11 13
M  V30 13 1 12 14
M  V30 14 2 13 15
M  V30 15 2 14 16
M  V30 16 1 16 17
M  V30 17 1 17 18
M  V30 18 2 18 19
M  V30 19 1 18 20
M  V30 20 2 20 21
M  V30 21 1 20 22
M  V30 22 1 21 23
M  V30 23 1 21 24
M  V30 24 2 22 25
M  V30 25 2 24 26
M  V30 26 1 25 27
M  V30 27 2 27 28
M  V30 28 1 27 29
M  V30 29 1 7 10
M  V30 30 2 11 12
M  V30 31 1 15 16
M  V30 32 1 25 26
M  V30 END BOND
M  V30 END CTAB
M  END
>  <Molecule ChEMBL ID>
CHEMBL2324298

>  <Smiles>
O=C(Nc1ccc2oc(-c3ccccc3Br)nc2c1)c1cc([N+](=O)[O-])ccc1Cl

>  <IC50_nM>
480

>  <Assay Description>
Inverse agonist activity at PPARgamma in human RT112/84-FABP4 cells assessed as reduction in PPARgamma transactivation measured by Nanoluciferase reporter gene assay

$$$$
CHEMBL3899514
Actelion Java MolfileCreator 2.0

  0  0  0  0  0  0              0 V3000
M  V30 BEGIN CTAB
M  V30 COUNTS 35 38 0 0 0
M  V30 BEGIN ATOM
M  V30 1 S 5.1961 -0.75 0.0 0
M  V30 2 O 4.4461 -2.049 0.0 0
M  V30 3 O 5.9461 -2.049 0.0 0
M  V30 4 N 3.8971 0.0 0.0 0
M  V30 5 C 6.4951 0.0 0.0 0
M  V30 6 C 2.598 -0.75 0.0 0
M  V30 7 C 7.7942 -0.75 0.0 0
M  V30 8 C 6.4951 1.5 0.0 0
M  V30 9 O 2.598 -2.25 0.0 0
M  V30 10 N 1.299 0.0 0.0 0
M  V30 11 C 9.0932 0.0 0.0 0
M  V30 12 C 7.7942 2.25 0.0 0
M  V30 13 C 0.0 -0.75 0.0 0
M  V30 14 C 9.0932 1.5 0.0 0
M  V30 15 C -1.299 0.0 0.0 0
M  V30 16 C 0.0 -2.25 0.0 0
M  V30 17 N 10.3923 2.25 0.0 0
M  V30 18 C -2.598 -0.75 0.0 0
M  V30 19 C -1.299 -3.0 0.0 0
M  V30 20 C 10.3923 3.75 0.0 0
M  V30 21 C -2.598 -2.25 0.0 0
M  V30 22 O 9.0932 4.5 0.0 0
M  V30 23 C 11.6913 4.5 0.0 0
M  V30 24 N 11.6913 6.0 0.0 0
M  V30 25 C 12.9903 6.75 0.0 0
M  V30 26 C 10.3923 6.75 0.0 0
M  V30 27 O 14.2894 6.0 0.0 0
M  V30 28 C 12.9903 8.25 0.0 0
M  V30 29 C 10.3923 8.25 0.0 0
M  V30 30 C 9.0932 6.0 0.0 0
M  V30 31 N 11.6913 9.0 0.0 0
M  V30 32 C 14.2894 9.0 0.0 0
M  V30 33 C 9.0932 9.0 0.0 0
M  V30 34 C 7.7942 6.75 0.0 0
M  V30 35 C 7.7942 8.25 0.0 0
M  V30 END ATOM
M  V30 BEGIN BOND
M  V30 1 2 1 2
M  V30 2 2 1 3
M  V30 3 1 1 4
M  V30 4 1 1 5
M  V30 5 1 4 6
M  V30 6 2 5 7
M  V30 7 1 5 8
M  V30 8 2 6 9
M  V30 9 1 6 10
M  V30 10 1 7 11
M  V30 11 2 8 12
M  V30 12 1 10 13
M  V30 13 2 11 14
M  V30 14 1 13 15
M  V30 15 1 13 16
M  V30 16 1 14 17
M  V30 17 1 15 18
M  V30 18 1 16 19
M  V30 19 1 17 20
M  V30 20 1 18 21
M  V30 21 2 20 22
M  V30 22 1 20 23
M  V30 23 1 23 24
M  V30 24 1 24 25
M  V30 25 1 24 26
M  V30 26 2 25 27
M  V30 27 1 25 28
M  V30 28 2 26 29
M  V30 29 1 26 30
M  V30 30 2 28 31
M  V30 31 1 28 32
M  V30 32 1 29 33
M  V30 33 2 30 34
M  V30 34 2 33 35
M  V30 35 1 12 14
M  V30 36 1 19 21
M  V30 37 1 29 31
M  V30 38 1 34 35
M  V30 END BOND
M  V30 END CTAB
M  END
>  <Molecule ChEMBL ID>
CHEMBL3899514

>  <Smiles>
Cc1nc2ccccc2n(CC(=O)Nc2ccc(S(=O)(=O)NC(=O)NC3CCCCC3)cc2)c1=O

>  <IC50_nM>
482

>  <Assay Description>
Displacement of fluormone-PPARgamma Green from recombinant human N-terminal GST-tagged PPARgamma-LBD by fluorescence polarization assay

$$$$
CHEMBL1090187
Actelion Java MolfileCreator 2.0

  0  0  0  0  0  0              0 V3000
M  V30 BEGIN CTAB
M  V30 COUNTS 40 43 0 0 0
M  V30 BEGIN ATOM
M  V30 1 O 5.1961 1.4999 0.0 0
M  V30 2 C 4.3301 0.9999 0.0 0
M  V30 3 O 4.3301 0.0 0.0 0
M  V30 4 N 3.4641 1.4999 0.0 0
M  V30 5 C 5.1961 -0.5 0.0 0
M  V30 6 C 2.598 1.0 0.0 0
M  V30 7 C 3.4641 2.4999 0.0 0
M  V30 8 C 6.0621 0.0 0.0 0
M  V30 9 C 5.1961 -1.5 0.0 0
M  V30 10 C 1.732 1.5 0.0 0
M  V30 11 C 4.3301 2.9999 0.0 0
M  V30 12 C 6.9282 -0.5 0.0 0
M  V30 13 C 6.0621 -2.0 0.0 0
M  V30 14 C 1.732 2.5 0.0 0
M  V30 15 C 0.866 1.0 0.0 0
M  V30 16 O 5.1961 2.4999 0.0 0
M  V30 17 O 4.3301 3.9999 0.0 0
M  V30 18 C 6.9282 -1.5 0.0 0
M  V30 19 C 0.866 3.0 0.0 0
M  V30 20 C 0.0 1.5 0.0 0
M  V30 21 C 7.7942 -2.0 0.0 0
M  V30 22 O 0.866 4.0 0.0 0
M  V30 23 C 0.0 2.5 0.0 0
M  V30 24 C 1.732 4.5 0.0 0
M  V30 25 C 1.732 5.5 0.0 0
M  V30 26 N 2.541 6.0877 0.0 0
M  V30 27 C 0.923 6.0877 0.0 0
M  V30 28 C 2.232 7.0388 0.0 0
M  V30 29 O 1.232 7.0388 0.0 0
M  V30 30 C -0.028 5.7787 0.0 0
M  V30 31 C 2.8198 7.8478 0.0 0
M  V30 32 C 3.8143 7.7433 0.0 0
M  V30 33 C 2.413 8.7614 0.0 0
M  V30 34 C 4.4021 8.5523 0.0 0
M  V30 35 C 3.0008 9.5704 0.0 0
M  V30 36 C 3.9954 9.4658 0.0 0
M  V30 37 C 4.5831 10.2749 0.0 0
M  V30 38 C 3.7741 10.8626 0.0 0
M  V30 39 C 5.1709 11.0839 0.0 0
M  V30 40 C 5.3922 9.6871 0.0 0
M  V30 END ATOM
M  V30 BEGIN BOND
M  V30 1 2 1 2
M  V30 2 1 2 3
M  V30 3 1 2 4
M  V30 4 1 3 5
M  V30 5 1 4 6
M  V30 6 1 4 7
M  V30 7 2 5 8
M  V30 8 1 5 9
M  V30 9 1 6 10
M  V30 10 1 7 11
M  V30 11 1 8 12
M  V30 12 2 9 13
M  V30 13 2 10 14
M  V30 14 1 10 15
M  V30 15 2 11 16
M  V30 16 1 11 17
M  V30 17 2 12 18
M  V30 18 1 14 19
M  V30 19 2 15 20
M  V30 20 1 18 21
M  V30 21 1 19 22
M  V30 22 2 19 23
M  V30 23 1 22 24
M  V30 24 1 24 25
M  V30 25 1 25 26
M  V30 26 2 25 27
M  V30 27 2 26 28
M  V30 28 1 27 29
M  V30 29 1 27 30
M  V30 30 1 28 31
M  V30 31 2 31 32
M  V30 32 1 31 33
M  V30 33 1 32 34
M  V30 34 2 33 35
M  V30 35 2 34 36
M  V30 36 1 36 37
M  V30 37 1 37 38
M  V30 38 1 37 39
M  V30 39 1 37 40
M  V30 40 1 13 18
M  V30 41 1 20 23
M  V30 42 1 28 29
M  V30 43 1 35 36
M  V30 END BOND
M  V30 END CTAB
M  END
>  <Molecule ChEMBL ID>
CHEMBL1090187

>  <Smiles>
Cc1ccc(OC(=O)N(CC(=O)O)Cc2cccc(OCc3nc(-c4ccc(C(C)(C)C)cc4)oc3C)c2)cc1

>  <IC50_nM>
483

>  <Assay Description>
Binding affinity to human His-tagged PPARgamma LBD (Q203-Y477) expressed in Escherichia coli BL21 (DE3) by fluorescence polarization assay

$$$$
CHEMBL391470
Actelion Java MolfileCreator 2.0

  0  0  0  0  0  0              0 V3000
M  V30 BEGIN CTAB
M  V30 COUNTS 31 33 0 0 0
M  V30 BEGIN ATOM
M  V30 1 O 8.6602 -4.5 0.0 0
M  V30 2 C 8.6602 -3.5 0.0 0
M  V30 3 O 9.5262 -3.0 0.0 0
M  V30 4 C 7.7942 -3.0 0.0 0
M  V30 5 C 7.7942 -2.0 0.0 0
M  V30 6 C 6.9282 -1.5 0.0 0
M  V30 7 C 6.9282 -0.5 0.0 0
M  V30 8 C 6.0621 -2.0 0.0 0
M  V30 9 C 6.0621 0.0 0.0 0
M  V30 10 C 7.7942 0.0 0.0 0
M  V30 11 C 5.1961 -1.5 0.0 0
M  V30 12 C 5.1961 -0.5 0.0 0
M  V30 13 O 4.3301 0.0 0.0 0
M  V30 14 C 3.4641 -0.5 0.0 0
M  V30 15 C 2.598 0.0 0.0 0
M  V30 16 C 1.732 -0.5 0.0 0 CFG=2
M  V30 17 O 0.866 0.0 0.0 0
M  V30 18 C 1.732 -1.5 0.0 0
M  V30 19 C 0.0 -0.5 0.0 0
M  V30 20 C -0.866 0.0 0.0 0
M  V30 21 C 0.0 -1.4999 0.0 0
M  V30 22 C -0.866 1.0 0.0 0
M  V30 23 C -1.732 -0.4999 0.0 0
M  V30 24 C -0.866 -1.9999 0.0 0
M  V30 25 O -0.057 1.5877 0.0 0
M  V30 26 N -1.675 1.5877 0.0 0
M  V30 27 C -1.732 -1.4999 0.0 0
M  V30 28 C -0.366 2.5388 0.0 0
M  V30 29 C -1.366 2.5388 0.0 0
M  V30 30 C -2.598 -1.9999 0.0 0
M  V30 31 C -2.598 -2.9999 0.0 0
M  V30 END ATOM
M  V30 BEGIN BOND
M  V30 1 2 1 2
M  V30 2 1 2 3
M  V30 3 1 2 4
M  V30 4 1 4 5
M  V30 5 1 5 6
M  V30 6 2 6 7
M  V30 7 1 6 8
M  V30 8 1 7 9
M  V30 9 1 7 10
M  V30 10 2 8 11
M  V30 11 2 9 12
M  V30 12 1 12 13
M  V30 13 1 13 14
M  V30 14 1 14 15
M  V30 15 1 15 16
M  V30 16 1 16 17
M  V30 17 1 16 18 CFG=1
M  V30 18 1 17 19
M  V30 19 2 19 20
M  V30 20 1 19 21
M  V30 21 1 20 22
M  V30 22 1 20 23
M  V30 23 2 21 24
M  V30 24 1 22 25
M  V30 25 2 22 26
M  V30 26 2 23 27
M  V30 27 1 25 28
M  V30 28 1 26 29
M  V30 29 1 27 30
M  V30 30 1 30 31
M  V30 31 1 11 12
M  V30 32 1 24 27
M  V30 33 2 28 29
M  V30 END BOND
M  V30 BEGIN COLLECTION
M  V30 MDLV30/STEABS ATOMS=(1 16)
M  V30 END COLLECTION
M  V30 END CTAB
M  END
>  <Molecule ChEMBL ID>
CHEMBL391470

>  <Smiles>
CCc1ccc(O[C@H](C)CCOc2ccc(CCC(=O)O)c(C)c2)c(-c2ncco2)c1

>  <IC50_nM>
483

>  <Assay Description>
Displacement of [3H]2-methyl-2-(4-{3-[porpyl-(5-pyridin-2yl-thiophene-2-sulfonyl)-amino]-propyl}-phenoxy)-propionic acid from human PPARgamma

$$$$
CHEMBL391470
Actelion Java MolfileCreator 2.0

  0  0  0  0  0  0              0 V3000
M  V30 BEGIN CTAB
M  V30 COUNTS 31 33 0 0 0
M  V30 BEGIN ATOM
M  V30 1 O 8.6602 -4.5 0.0 0
M  V30 2 C 8.6602 -3.5 0.0 0
M  V30 3 O 9.5262 -3.0 0.0 0
M  V30 4 C 7.7942 -3.0 0.0 0
M  V30 5 C 7.7942 -2.0 0.0 0
M  V30 6 C 6.9282 -1.5 0.0 0
M  V30 7 C 6.9282 -0.5 0.0 0
M  V30 8 C 6.0621 -2.0 0.0 0
M  V30 9 C 6.0621 0.0 0.0 0
M  V30 10 C 7.7942 0.0 0.0 0
M  V30 11 C 5.1961 -1.5 0.0 0
M  V30 12 C 5.1961 -0.5 0.0 0
M  V30 13 O 4.3301 0.0 0.0 0
M  V30 14 C 3.4641 -0.5 0.0 0
M  V30 15 C 2.598 0.0 0.0 0
M  V30 16 C 1.732 -0.5 0.0 0 CFG=2
M  V30 17 O 0.866 0.0 0.0 0
M  V30 18 C 1.732 -1.5 0.0 0
M  V30 19 C 0.0 -0.5 0.0 0
M  V30 20 C -0.866 0.0 0.0 0
M  V30 21 C 0.0 -1.4999 0.0 0
M  V30 22 C -0.866 1.0 0.0 0
M  V30 23 C -1.732 -0.4999 0.0 0
M  V30 24 C -0.866 -1.9999 0.0 0
M  V30 25 O -0.057 1.5877 0.0 0
M  V30 26 N -1.675 1.5877 0.0 0
M  V30 27 C -1.732 -1.4999 0.0 0
M  V30 28 C -0.366 2.5388 0.0 0
M  V30 29 C -1.366 2.5388 0.0 0
M  V30 30 C -2.598 -1.9999 0.0 0
M  V30 31 C -2.598 -2.9999 0.0 0
M  V30 END ATOM
M  V30 BEGIN BOND
M  V30 1 2 1 2
M  V30 2 1 2 3
M  V30 3 1 2 4
M  V30 4 1 4 5
M  V30 5 1 5 6
M  V30 6 2 6 7
M  V30 7 1 6 8
M  V30 8 1 7 9
M  V30 9 1 7 10
M  V30 10 2 8 11
M  V30 11 2 9 12
M  V30 12 1 12 13
M  V30 13 1 13 14
M  V30 14 1 14 15
M  V30 15 1 15 16
M  V30 16 1 16 17
M  V30 17 1 16 18 CFG=1
M  V30 18 1 17 19
M  V30 19 2 19 20
M  V30 20 1 19 21
M  V30 21 1 20 22
M  V30 22 1 20 23
M  V30 23 2 21 24
M  V30 24 1 22 25
M  V30 25 2 22 26
M  V30 26 2 23 27
M  V30 27 1 25 28
M  V30 28 1 26 29
M  V30 29 1 27 30
M  V30 30 1 30 31
M  V30 31 1 11 12
M  V30 32 1 24 27
M  V30 33 2 28 29
M  V30 END BOND
M  V30 BEGIN COLLECTION
M  V30 MDLV30/STEABS ATOMS=(1 16)
M  V30 END COLLECTION
M  V30 END CTAB
M  END
>  <Molecule ChEMBL ID>
CHEMBL391470

>  <Smiles>
CCc1ccc(O[C@H](C)CCOc2ccc(CCC(=O)O)c(C)c2)c(-c2ncco2)c1

>  <IC50_nM>
483.06

>  <Assay Description>
Agonist activity at PPARgamma

$$$$
CHEMBL458053
Actelion Java MolfileCreator 2.0

  0  0  0  0  0  0              0 V3000
M  V30 BEGIN CTAB
M  V30 COUNTS 25 27 0 0 0
M  V30 BEGIN ATOM
M  V30 1 O 9.0932 1.4999 0.0 0
M  V30 2 C 9.0932 0.0 0.0 0
M  V30 3 C 7.7942 -0.75 0.0 0
M  V30 4 C 10.3923 -0.75 0.0 0
M  V30 5 C 7.7942 -2.25 0.0 0
M  V30 6 C 6.4951 0.0 0.0 0
M  V30 7 C 10.3923 -2.25 0.0 0
M  V30 8 O 9.0932 -3.0 0.0 0
M  V30 9 C 6.4951 -3.0 0.0 0
M  V30 10 C 5.1961 -0.75 0.0 0
M  V30 11 C 11.6913 -3.0 0.0 0
M  V30 12 C 5.1961 -2.2499 0.0 0
M  V30 13 C 3.8971 0.0 0.0 0
M  V30 14 C 11.6913 -4.5 0.0 0
M  V30 15 C 12.9903 -2.25 0.0 0
M  V30 16 O 3.8971 -2.9999 0.0 0
M  V30 17 C 2.598 -0.75 0.0 0
M  V30 18 C 12.9903 -5.25 0.0 0
M  V30 19 C 14.2894 -3.0 0.0 0
M  V30 20 C 3.8971 -4.4999 0.0 0
M  V30 21 C 1.299 0.0 0.0 0
M  V30 22 C 14.2894 -4.5 0.0 0
M  V30 23 C 1.299 1.5 0.0 0
M  V30 24 C 0.0 -0.75 0.0 0
M  V30 25 O 15.5884 -5.25 0.0 0
M  V30 END ATOM
M  V30 BEGIN BOND
M  V30 1 2 1 2
M  V30 2 1 2 3
M  V30 3 1 2 4
M  V30 4 2 3 5
M  V30 5 1 3 6
M  V30 6 2 4 7
M  V30 7 1 5 8
M  V30 8 1 5 9
M  V30 9 2 6 10
M  V30 10 1 7 11
M  V30 11 2 9 12
M  V30 12 1 10 13
M  V30 13 2 11 14
M  V30 14 1 11 15
M  V30 15 1 12 16
M  V30 16 1 13 17
M  V30 17 1 14 18
M  V30 18 2 15 19
M  V30 19 1 16 20
M  V30 20 2 17 21
M  V30 21 2 18 22
M  V30 22 1 21 23
M  V30 23 1 21 24
M  V30 24 1 22 25
M  V30 25 1 7 8
M  V30 26 1 10 12
M  V30 27 1 19 22
M  V30 END BOND
M  V30 END CTAB
M  END
>  <Molecule ChEMBL ID>
CHEMBL458053

>  <Smiles>
COc1cc2oc(-c3ccc(O)cc3)cc(=O)c2cc1CC=C(C)C

>  <IC50_nM>
488.8

>  <Assay Description>
Agonist activity at PPARgamma ligand binding domain (unknown origin) using fluormone Pan-PPAR green tracer by TR-FRET assay based competitive ligand binding method

$$$$
CHEMBL1783050
Actelion Java MolfileCreator 2.0

  0  0  0  0  0  0              0 V3000
M  V30 BEGIN CTAB
M  V30 COUNTS 33 36 0 0 0
M  V30 BEGIN ATOM
M  V30 1 O 9.2836 2.1159 0.0 0
M  V30 2 C 8.8769 1.2024 0.0 0
M  V30 3 O 7.8987 0.9945 0.0 0
M  V30 4 N 9.3769 0.3364 0.0 0
M  V30 5 C 7.7942 0.0 0.0 0 CFG=1
M  V30 6 C 8.7077 -0.4067 0.0 0
M  V30 7 C 6.9282 -0.5 0.0 0
M  V30 8 O 8.9156 -1.3848 0.0 0
M  V30 9 C 6.0621 0.0 0.0 0
M  V30 10 C 6.9282 -1.5 0.0 0
M  V30 11 C 5.1961 -0.5 0.0 0
M  V30 12 C 6.0621 -2.0 0.0 0
M  V30 13 O 4.3301 0.0 0.0 0
M  V30 14 C 5.1961 -1.5 0.0 0
M  V30 15 C 3.4641 -0.5 0.0 0
M  V30 16 C 2.598 0.0 0.0 0
M  V30 17 C 1.732 -0.5 0.0 0
M  V30 18 O 0.866 0.0 0.0 0
M  V30 19 C 0.0 -0.5 0.0 0
M  V30 20 C -0.866 0.0 0.0 0
M  V30 21 C 0.0 -1.4999 0.0 0
M  V30 22 C -1.732 -0.4999 0.0 0
M  V30 23 C -0.866 1.0 0.0 0
M  V30 24 C -0.866 -1.9999 0.0 0
M  V30 25 C -1.732 -1.4999 0.0 0
M  V30 26 C 0.0 1.5 0.0 0
M  V30 27 C -2.598 -1.9999 0.0 0
M  V30 28 C 0.0 2.5 0.0 0
M  V30 29 C -3.4641 -1.4999 0.0 0
M  V30 30 C -2.598 -2.9999 0.0 0
M  V30 31 C -4.3301 -1.9999 0.0 0
M  V30 32 C -3.4641 -3.4999 0.0 0
M  V30 33 C -4.3301 -2.9999 0.0 0
M  V30 END ATOM
M  V30 BEGIN BOND
M  V30 1 2 1 2
M  V30 2 1 2 3
M  V30 3 1 2 4
M  V30 4 1 3 5
M  V30 5 1 4 6
M  V30 6 1 5 7 CFG=1
M  V30 7 2 6 8
M  V30 8 2 7 9
M  V30 9 1 7 10
M  V30 10 1 9 11
M  V30 11 2 10 12
M  V30 12 1 11 13
M  V30 13 2 11 14
M  V30 14 1 13 15
M  V30 15 1 15 16
M  V30 16 1 16 17
M  V30 17 1 17 18
M  V30 18 1 18 19
M  V30 19 2 19 20
M  V30 20 1 19 21
M  V30 21 1 20 22
M  V30 22 1 20 23
M  V30 23 2 21 24
M  V30 24 2 22 25
M  V30 25 1 23 26
M  V30 26 1 25 27
M  V30 27 1 26 28
M  V30 28 1 27 29
M  V30 29 1 27 30
M  V30 30 1 29 31
M  V30 31 1 30 32
M  V30 32 1 31 33
M  V30 33 1 5 6
M  V30 34 1 12 14
M  V30 35 1 24 25
M  V30 36 1 32 33
M  V30 END BOND
M  V30 BEGIN COLLECTION
M  V30 MDLV30/STEABS ATOMS=(1 5)
M  V30 END COLLECTION
M  V30 END CTAB
M  END
>  <Molecule ChEMBL ID>
CHEMBL1783050

>  <Smiles>
CCCc1cc(C2CCCCC2)ccc1OCCCOc1cccc([C@H]2OC(=O)NC2=O)c1

>  <IC50_nM>
490

>  <Assay Description>
Displacement of radio-labeled full agonist from PPARgamma receptor

$$$$
CHEMBL118756
Actelion Java MolfileCreator 2.0

  0  0  0  0  0  0              0 V3000
M  V30 BEGIN CTAB
M  V30 COUNTS 33 36 0 0 0
M  V30 BEGIN ATOM
M  V30 1 O 9.2836 2.1159 0.0 0
M  V30 2 C 8.8769 1.2024 0.0 0
M  V30 3 O 7.8987 0.9945 0.0 0
M  V30 4 N 9.3769 0.3364 0.0 0
M  V30 5 C 7.7942 0.0 0.0 0 CFG=1
M  V30 6 C 8.7077 -0.4067 0.0 0
M  V30 7 C 6.9282 -0.5 0.0 0
M  V30 8 O 8.9156 -1.3848 0.0 0
M  V30 9 C 6.0621 0.0 0.0 0
M  V30 10 C 6.9282 -1.5 0.0 0
M  V30 11 C 5.1961 -0.5 0.0 0
M  V30 12 C 6.0621 -2.0 0.0 0
M  V30 13 O 4.3301 0.0 0.0 0
M  V30 14 C 5.1961 -1.5 0.0 0
M  V30 15 C 3.4641 -0.5 0.0 0
M  V30 16 C 2.598 0.0 0.0 0
M  V30 17 C 1.732 -0.5 0.0 0
M  V30 18 O 0.866 0.0 0.0 0
M  V30 19 C 0.0 -0.5 0.0 0
M  V30 20 C -0.866 0.0 0.0 0
M  V30 21 C 0.0 -1.4999 0.0 0
M  V30 22 C -1.732 -0.4999 0.0 0
M  V30 23 C -0.866 1.0 0.0 0
M  V30 24 C -0.866 -1.9999 0.0 0
M  V30 25 C -1.732 -1.4999 0.0 0
M  V30 26 C 0.0 1.5 0.0 0
M  V30 27 C -2.598 -1.9999 0.0 0
M  V30 28 C 0.0 2.5 0.0 0
M  V30 29 C -3.4641 -1.4999 0.0 0
M  V30 30 C -2.598 -2.9999 0.0 0
M  V30 31 C -4.3301 -1.9999 0.0 0
M  V30 32 C -3.4641 -3.4999 0.0 0
M  V30 33 C -4.3301 -2.9999 0.0 0
M  V30 END ATOM
M  V30 BEGIN BOND
M  V30 1 2 1 2
M  V30 2 1 2 3
M  V30 3 1 2 4
M  V30 4 1 3 5
M  V30 5 1 4 6
M  V30 6 1 5 7 CFG=1
M  V30 7 2 6 8
M  V30 8 2 7 9
M  V30 9 1 7 10
M  V30 10 1 9 11
M  V30 11 2 10 12
M  V30 12 1 11 13
M  V30 13 2 11 14
M  V30 14 1 13 15
M  V30 15 1 15 16
M  V30 16 1 16 17
M  V30 17 1 17 18
M  V30 18 1 18 19
M  V30 19 2 19 20
M  V30 20 1 19 21
M  V30 21 1 20 22
M  V30 22 1 20 23
M  V30 23 2 21 24
M  V30 24 2 22 25
M  V30 25 1 23 26
M  V30 26 1 25 27
M  V30 27 1 26 28
M  V30 28 1 27 29
M  V30 29 1 27 30
M  V30 30 1 29 31
M  V30 31 1 30 32
M  V30 32 1 31 33
M  V30 33 1 5 6
M  V30 34 1 12 14
M  V30 35 1 24 25
M  V30 36 1 32 33
M  V30 END BOND
M  V30 BEGIN COLLECTION
M  V30 MDLV30/STERAC1 ATOMS=(1 5)
M  V30 END COLLECTION
M  V30 END CTAB
M  END
>  <Molecule ChEMBL ID>
CHEMBL118756

>  <Smiles>
CCCc1cc(C2CCCCC2)ccc1OCCCOc1cccc(C2OC(=O)NC2=O)c1

>  <IC50_nM>
490

>  <Assay Description>
In vitro binding affinity against human peroxisome proliferator activated receptor gamma

$$$$
CHEMBL590984
Actelion Java MolfileCreator 2.0

  0  0  0  0  0  0              0 V3000
M  V30 BEGIN CTAB
M  V30 COUNTS 42 46 0 0 0
M  V30 BEGIN ATOM
M  V30 1 S 7.3222 2.26 0.0 0
M  V30 2 C 7.0132 1.309 0.0 0
M  V30 3 C 6.6531 3.0032 0.0 0
M  V30 4 C 6.0621 0.9999 0.0 0
M  V30 5 C 7.601 0.5 0.0 0
M  V30 6 C 6.0621 0.0 0.0 0
M  V30 7 C 5.1961 1.4999 0.0 0
M  V30 8 N 7.0132 -0.309 0.0 0
M  V30 9 C 8.601 0.5 0.0 0
M  V30 10 C 5.1961 -0.5 0.0 0
M  V30 11 C 4.3301 0.9999 0.0 0
M  V30 12 C 7.3222 -1.26 0.0 0
M  V30 13 C 9.101 1.366 0.0 0
M  V30 14 C 4.3301 0.0 0.0 0
M  V30 15 C 8.3003 -1.4679 0.0 0
M  V30 16 C 10.101 1.366 0.0 0
M  V30 17 N 3.4641 -0.5 0.0 0
M  V30 18 C 8.6094 -2.419 0.0 0
M  V30 19 C 8.9695 -0.7248 0.0 0
M  V30 20 C 2.598 0.0 0.0 0
M  V30 21 C 9.5875 -2.6269 0.0 0
M  V30 22 C 9.9476 -0.9327 0.0 0
M  V30 23 O 2.598 1.0 0.0 0
M  V30 24 C 1.732 -0.5 0.0 0 CFG=1
M  V30 25 C 10.2566 -1.8838 0.0 0
M  V30 26 C 1.732 -1.5 0.0 0
M  V30 27 C 0.866 0.0 0.0 0
M  V30 28 C 11.2348 -2.0917 0.0 0
M  V30 29 C 0.866 -1.9999 0.0 0
M  V30 30 C 2.598 -2.0 0.0 0
M  V30 31 C 0.0 -0.5 0.0 0
M  V30 32 C 11.5438 -3.0427 0.0 0
M  V30 33 C 11.9039 -1.3485 0.0 0
M  V30 34 C 0.866 -2.9999 0.0 0
M  V30 35 C 2.598 -3.0 0.0 0
M  V30 36 C 10.8747 -3.7859 0.0 0
M  V30 37 C 12.522 -3.2506 0.0 0
M  V30 38 C 12.8821 -1.5564 0.0 0
M  V30 39 C 1.732 -3.5 0.0 0
M  V30 40 O 9.8965 -3.578 0.0 0
M  V30 41 O 11.1837 -4.7369 0.0 0
M  V30 42 C 13.1911 -2.5075 0.0 0
M  V30 END ATOM
M  V30 BEGIN BOND
M  V30 1 1 1 2
M  V30 2 1 1 3
M  V30 3 1 2 4
M  V30 4 2 2 5
M  V30 5 2 4 6
M  V30 6 1 4 7
M  V30 7 1 5 8
M  V30 8 1 5 9
M  V30 9 1 6 10
M  V30 10 2 7 11
M  V30 11 1 8 12
M  V30 12 1 9 13
M  V30 13 2 10 14
M  V30 14 1 12 15
M  V30 15 1 13 16
M  V30 16 1 14 17
M  V30 17 2 15 18
M  V30 18 1 15 19
M  V30 19 1 17 20
M  V30 20 1 18 21
M  V30 21 2 19 22
M  V30 22 2 20 23
M  V30 23 1 20 24
M  V30 24 2 21 25
M  V30 25 1 24 26
M  V30 26 1 24 27 CFG=1
M  V30 27 1 25 28
M  V30 28 2 26 29
M  V30 29 1 26 30
M  V30 30 1 27 31
M  V30 31 2 28 32
M  V30 32 1 28 33
M  V30 33 1 29 34
M  V30 34 2 30 35
M  V30 35 1 32 36
M  V30 36 1 32 37
M  V30 37 2 33 38
M  V30 38 2 34 39
M  V30 39 2 36 40
M  V30 40 1 36 41
M  V30 41 2 37 42
M  V30 42 1 6 8
M  V30 43 1 11 14
M  V30 44 1 22 25
M  V30 45 1 35 39
M  V30 46 1 38 42
M  V30 END BOND
M  V30 BEGIN COLLECTION
M  V30 MDLV30/STERAC1 ATOMS=(1 24)
M  V30 END COLLECTION
M  V30 END CTAB
M  END
>  <Molecule ChEMBL ID>
CHEMBL590984

>  <Smiles>
CCCc1c(SC)c2ccc(NC(=O)C(CC)c3ccccc3)cc2n1Cc1ccc(-c2ccccc2C(=O)O)cc1

>  <IC50_nM>
490

>  <Assay Description>
Displacement of radiolabeled ((5-{4-[Methyl-pyridin-2yl-amino)-ethoxy]-benzyl}-thiazolidine-2,4-dione) from human PPARgamma ligand binding domain expressed in Escherichia coli

$$$$
CHEMBL3398455
Actelion Java MolfileCreator 2.0

  0  0  0  0  0  0              0 V3000
M  V30 BEGIN CTAB
M  V30 COUNTS 36 39 0 0 0
M  V30 BEGIN ATOM
M  V30 1 O 10.9592 1.0408 0.0 0
M  V30 2 C 10.3714 0.2318 0.0 0
M  V30 3 O 10.7781 -0.6816 0.0 0
M  V30 4 N 9.3769 0.3364 0.0 0
M  V30 5 C 10.1903 -1.4906 0.0 0
M  V30 6 C 8.8769 1.2024 0.0 0
M  V30 7 C 8.7077 -0.4067 0.0 0
M  V30 8 C 10.5971 -2.4042 0.0 0
M  V30 9 C 7.8987 0.9945 0.0 0 CFG=1
M  V30 10 C 7.7942 0.0 0.0 0 CFG=2
M  V30 11 C 7.1556 1.6636 0.0 0
M  V30 12 C 6.9282 -0.5 0.0 0
M  V30 13 O 7.3635 2.6418 0.0 0
M  V30 14 O 6.2045 1.3546 0.0 0
M  V30 15 C 6.0621 0.0 0.0 0
M  V30 16 C 5.1961 -0.5 0.0 0
M  V30 17 C 4.3301 0.0 0.0 0
M  V30 18 C 5.1961 -1.4999 0.0 0
M  V30 19 C 3.4641 -0.5 0.0 0
M  V30 20 C 4.3301 -1.9999 0.0 0
M  V30 21 O 2.598 0.0 0.0 0
M  V30 22 C 3.4641 -1.4999 0.0 0
M  V30 23 C 1.732 -0.5 0.0 0
M  V30 24 C 0.866 0.0 0.0 0
M  V30 25 C 0.0 -0.5 0.0 0
M  V30 26 N -0.9135 -0.0932 0.0 0
M  V30 27 C -0.1045 -1.4945 0.0 0
M  V30 28 C -1.5826 -0.8364 0.0 0
M  V30 29 O -1.0826 -1.7024 0.0 0
M  V30 30 C 0.6386 -2.1636 0.0 0
M  V30 31 C -2.5771 -0.7318 0.0 0
M  V30 32 C -2.9839 0.1816 0.0 0
M  V30 33 C -3.1649 -1.5408 0.0 0
M  V30 34 C -3.9784 0.2861 0.0 0
M  V30 35 C -4.1595 -1.4363 0.0 0
M  V30 36 C -4.5662 -0.5228 0.0 0
M  V30 END ATOM
M  V30 BEGIN BOND
M  V30 1 2 1 2
M  V30 2 1 2 3
M  V30 3 1 2 4
M  V30 4 1 3 5
M  V30 5 1 4 6
M  V30 6 1 4 7
M  V30 7 1 5 8
M  V30 8 1 6 9
M  V30 9 1 7 10
M  V30 10 1 9 11 CFG=1
M  V30 11 1 10 12 CFG=1
M  V30 12 2 11 13
M  V30 13 1 11 14
M  V30 14 1 12 15
M  V30 15 1 15 16
M  V30 16 2 16 17
M  V30 17 1 16 18
M  V30 18 1 17 19
M  V30 19 2 18 20
M  V30 20 1 19 21
M  V30 21 2 19 22
M  V30 22 1 21 23
M  V30 23 1 23 24
M  V30 24 1 24 25
M  V30 25 1 25 26
M  V30 26 2 25 27
M  V30 27 2 26 28
M  V30 28 1 27 29
M  V30 29 1 27 30
M  V30 30 1 28 31
M  V30 31 2 31 32
M  V30 32 1 31 33
M  V30 33 1 32 34
M  V30 34 2 33 35
M  V30 35 2 34 36
M  V30 36 1 9 10
M  V30 37 1 20 22
M  V30 38 1 28 29
M  V30 39 1 35 36
M  V30 END BOND
M  V30 BEGIN COLLECTION
M  V30 MDLV30/STEABS ATOMS=(2 9 10)
M  V30 END COLLECTION
M  V30 END CTAB
M  END
>  <Molecule ChEMBL ID>
CHEMBL3398455

>  <Smiles>
CCOC(=O)N1C[C@@H](CCc2cccc(OCCc3nc(-c4ccccc4)oc3C)c2)[C@@H](C(=O)O)C1

>  <IC50_nM>
490

>  <Assay Description>
Binding affinity to PPARgamma (unknown origin) using fluorescein-tagged dual PPARalpha/gamma activator by homogeneous fluorescence polarization binding assay

$$$$
CHEMBL3398438
Actelion Java MolfileCreator 2.0

  0  0  0  0  0  0              0 V3000
M  V30 BEGIN CTAB
M  V30 COUNTS 39 43 0 0 0
M  V30 BEGIN ATOM
M  V30 1 O 7.8298 -3.4249 0.0 0
M  V30 2 C 8.4176 -2.6159 0.0 0
M  V30 3 O 9.4121 -2.7205 0.0 0
M  V30 4 N 8.0108 -1.7024 0.0 0
M  V30 5 C 9.9999 -1.9114 0.0 0
M  V30 6 C 8.5108 -0.8364 0.0 0
M  V30 7 C 7.0327 -1.4945 0.0 0
M  V30 8 C 10.9944 -2.016 0.0 0
M  V30 9 C 9.5931 -0.9979 0.0 0
M  V30 10 C 7.8417 -0.0932 0.0 0 CFG=1
M  V30 11 C 6.9282 -0.5 0.0 0 CFG=2
M  V30 12 C 11.5822 -1.207 0.0 0
M  V30 13 C 10.1809 -0.1889 0.0 0
M  V30 14 C 8.0496 0.8848 0.0 0
M  V30 15 C 6.0621 0.0 0.0 0
M  V30 16 C 11.1754 -0.2934 0.0 0
M  V30 17 O 9.0007 1.1939 0.0 0
M  V30 18 O 7.3065 1.554 0.0 0
M  V30 19 C 5.1961 -0.5 0.0 0
M  V30 20 C 4.3301 0.0 0.0 0
M  V30 21 C 5.1961 -1.4999 0.0 0
M  V30 22 C 3.4641 -0.5 0.0 0
M  V30 23 C 4.3301 -1.9999 0.0 0
M  V30 24 O 2.598 0.0 0.0 0
M  V30 25 C 3.4641 -1.4999 0.0 0
M  V30 26 C 1.732 -0.5 0.0 0
M  V30 27 C 0.866 0.0 0.0 0
M  V30 28 C 0.0 -0.5 0.0 0
M  V30 29 N -0.9135 -0.0932 0.0 0
M  V30 30 C -0.1045 -1.4945 0.0 0
M  V30 31 C -1.5826 -0.8364 0.0 0
M  V30 32 O -1.0826 -1.7024 0.0 0
M  V30 33 C 0.6386 -2.1636 0.0 0
M  V30 34 C -2.5771 -0.7318 0.0 0
M  V30 35 C -2.9839 0.1816 0.0 0
M  V30 36 C -3.1649 -1.5408 0.0 0
M  V30 37 C -3.9784 0.2861 0.0 0
M  V30 38 C -4.1595 -1.4363 0.0 0
M  V30 39 C -4.5662 -0.5228 0.0 0
M  V30 END ATOM
M  V30 BEGIN BOND
M  V30 1 2 1 2
M  V30 2 1 2 3
M  V30 3 1 2 4
M  V30 4 1 3 5
M  V30 5 1 4 6
M  V30 6 1 4 7
M  V30 7 2 5 8
M  V30 8 1 5 9
M  V30 9 1 6 10
M  V30 10 1 7 11
M  V30 11 1 8 12
M  V30 12 2 9 13
M  V30 13 1 10 14 CFG=1
M  V30 14 1 11 15 CFG=1
M  V30 15 2 12 16
M  V30 16 2 14 17
M  V30 17 1 14 18
M  V30 18 1 15 19
M  V30 19 2 19 20
M  V30 20 1 19 21
M  V30 21 1 20 22
M  V30 22 2 21 23
M  V30 23 1 22 24
M  V30 24 2 22 25
M  V30 25 1 24 26
M  V30 26 1 26 27
M  V30 27 1 27 28
M  V30 28 1 28 29
M  V30 29 2 28 30
M  V30 30 2 29 31
M  V30 31 1 30 32
M  V30 32 1 30 33
M  V30 33 1 31 34
M  V30 34 2 34 35
M  V30 35 1 34 36
M  V30 36 1 35 37
M  V30 37 2 36 38
M  V30 38 2 37 39
M  V30 39 1 10 11
M  V30 40 1 13 16
M  V30 41 1 23 25
M  V30 42 1 31 32
M  V30 43 1 38 39
M  V30 END BOND
M  V30 BEGIN COLLECTION
M  V30 MDLV30/STEABS ATOMS=(2 10 11)
M  V30 END COLLECTION
M  V30 END CTAB
M  END
>  <Molecule ChEMBL ID>
CHEMBL3398438

>  <Smiles>
Cc1oc(-c2ccccc2)nc1CCOc1cccc(C[C@@H]2CN(C(=O)Oc3ccccc3)C[C@@H]2C(=O)O)c1

>  <IC50_nM>
490

>  <Assay Description>
Binding affinity to PPARgamma (unknown origin) using fluorescein-tagged dual PPARalpha/gamma activator by homogeneous fluorescence polarization binding assay

$$$$
CHEMBL81592
Actelion Java MolfileCreator 2.0

  0  0  0  0  0  0              0 V3000
M  V30 BEGIN CTAB
M  V30 COUNTS 34 37 0 0 0
M  V30 BEGIN ATOM
M  V30 1 O 6.0621 0.0 0.0 0
M  V30 2 C 6.9282 -0.5 0.0 0
M  V30 3 O 7.7942 0.0 0.0 0
M  V30 4 C 6.9282 -1.4999 0.0 0 CFG=1
M  V30 5 O 6.0621 -2.0 0.0 0
M  V30 6 C 7.7942 -2.0 0.0 0
M  V30 7 C 6.0621 -1.0 0.0 0
M  V30 8 C 5.1961 -1.4999 0.0 0
M  V30 9 C 7.7942 -2.9999 0.0 0
M  V30 10 C 5.1961 -0.5 0.0 0
M  V30 11 C 4.3301 -1.9999 0.0 0
M  V30 12 C 8.6602 -3.4999 0.0 0
M  V30 13 C 6.9282 -3.5 0.0 0
M  V30 14 C 4.3301 0.0 0.0 0
M  V30 15 C 3.4641 -1.5 0.0 0
M  V30 16 C 8.6602 -4.5 0.0 0
M  V30 17 C 6.9282 -4.5 0.0 0
M  V30 18 C 3.4641 -0.5 0.0 0
M  V30 19 C 7.7942 -5.0 0.0 0
M  V30 20 O 2.598 0.0 0.0 0
M  V30 21 C 1.732 -0.5 0.0 0
M  V30 22 C 0.866 0.0 0.0 0
M  V30 23 C 0.0 -0.5 0.0 0
M  V30 24 N -0.9135 -0.0932 0.0 0
M  V30 25 C -0.1045 -1.4945 0.0 0
M  V30 26 C -1.5826 -0.8364 0.0 0
M  V30 27 O -1.0826 -1.7024 0.0 0
M  V30 28 C 0.6386 -2.1636 0.0 0
M  V30 29 C -2.5771 -0.7318 0.0 0
M  V30 30 C -2.9839 0.1816 0.0 0
M  V30 31 C -3.1649 -1.5408 0.0 0
M  V30 32 C -3.9784 0.2861 0.0 0
M  V30 33 C -4.1595 -1.4363 0.0 0
M  V30 34 C -4.5662 -0.5228 0.0 0
M  V30 END ATOM
M  V30 BEGIN BOND
M  V30 1 2 1 2
M  V30 2 1 2 3
M  V30 3 1 2 4
M  V30 4 1 4 5
M  V30 5 1 4 6
M  V30 6 1 4 7 CFG=1
M  V30 7 1 5 8
M  V30 8 1 6 9
M  V30 9 2 8 10
M  V30 10 1 8 11
M  V30 11 2 9 12
M  V30 12 1 9 13
M  V30 13 1 10 14
M  V30 14 2 11 15
M  V30 15 1 12 16
M  V30 16 2 13 17
M  V30 17 2 14 18
M  V30 18 2 16 19
M  V30 19 1 18 20
M  V30 20 1 20 21
M  V30 21 1 21 22
M  V30 22 1 22 23
M  V30 23 1 23 24
M  V30 24 2 23 25
M  V30 25 2 24 26
M  V30 26 1 25 27
M  V30 27 1 25 28
M  V30 28 1 26 29
M  V30 29 2 29 30
M  V30 30 1 29 31
M  V30 31 1 30 32
M  V30 32 2 31 33
M  V30 33 2 32 34
M  V30 34 1 15 18
M  V30 35 1 17 19
M  V30 36 1 26 27
M  V30 37 1 33 34
M  V30 END BOND
M  V30 BEGIN COLLECTION
M  V30 MDLV30/STERAC1 ATOMS=(1 4)
M  V30 END COLLECTION
M  V30 END CTAB
M  END
>  <Molecule ChEMBL ID>
CHEMBL81592

>  <Smiles>
Cc1oc(-c2ccccc2)nc1CCOc1ccc(OC(C)(Cc2ccccc2)C(=O)O)cc1

>  <IC50_nM>
490.91

>  <Assay Description>
Agonist activity at PPARgamma

$$$$
CHEMBL81592
Actelion Java MolfileCreator 2.0

  0  0  0  0  0  0              0 V3000
M  V30 BEGIN CTAB
M  V30 COUNTS 34 37 0 0 0
M  V30 BEGIN ATOM
M  V30 1 O 6.0621 0.0 0.0 0
M  V30 2 C 6.9282 -0.5 0.0 0
M  V30 3 O 7.7942 0.0 0.0 0
M  V30 4 C 6.9282 -1.4999 0.0 0 CFG=1
M  V30 5 O 6.0621 -2.0 0.0 0
M  V30 6 C 7.7942 -2.0 0.0 0
M  V30 7 C 6.0621 -1.0 0.0 0
M  V30 8 C 5.1961 -1.4999 0.0 0
M  V30 9 C 7.7942 -2.9999 0.0 0
M  V30 10 C 5.1961 -0.5 0.0 0
M  V30 11 C 4.3301 -1.9999 0.0 0
M  V30 12 C 8.6602 -3.4999 0.0 0
M  V30 13 C 6.9282 -3.5 0.0 0
M  V30 14 C 4.3301 0.0 0.0 0
M  V30 15 C 3.4641 -1.5 0.0 0
M  V30 16 C 8.6602 -4.5 0.0 0
M  V30 17 C 6.9282 -4.5 0.0 0
M  V30 18 C 3.4641 -0.5 0.0 0
M  V30 19 C 7.7942 -5.0 0.0 0
M  V30 20 O 2.598 0.0 0.0 0
M  V30 21 C 1.732 -0.5 0.0 0
M  V30 22 C 0.866 0.0 0.0 0
M  V30 23 C 0.0 -0.5 0.0 0
M  V30 24 N -0.9135 -0.0932 0.0 0
M  V30 25 C -0.1045 -1.4945 0.0 0
M  V30 26 C -1.5826 -0.8364 0.0 0
M  V30 27 O -1.0826 -1.7024 0.0 0
M  V30 28 C 0.6386 -2.1636 0.0 0
M  V30 29 C -2.5771 -0.7318 0.0 0
M  V30 30 C -2.9839 0.1816 0.0 0
M  V30 31 C -3.1649 -1.5408 0.0 0
M  V30 32 C -3.9784 0.2861 0.0 0
M  V30 33 C -4.1595 -1.4363 0.0 0
M  V30 34 C -4.5662 -0.5228 0.0 0
M  V30 END ATOM
M  V30 BEGIN BOND
M  V30 1 2 1 2
M  V30 2 1 2 3
M  V30 3 1 2 4
M  V30 4 1 4 5
M  V30 5 1 4 6
M  V30 6 1 4 7 CFG=1
M  V30 7 1 5 8
M  V30 8 1 6 9
M  V30 9 2 8 10
M  V30 10 1 8 11
M  V30 11 2 9 12
M  V30 12 1 9 13
M  V30 13 1 10 14
M  V30 14 2 11 15
M  V30 15 1 12 16
M  V30 16 2 13 17
M  V30 17 2 14 18
M  V30 18 2 16 19
M  V30 19 1 18 20
M  V30 20 1 20 21
M  V30 21 1 21 22
M  V30 22 1 22 23
M  V30 23 1 23 24
M  V30 24 2 23 25
M  V30 25 2 24 26
M  V30 26 1 25 27
M  V30 27 1 25 28
M  V30 28 1 26 29
M  V30 29 2 29 30
M  V30 30 1 29 31
M  V30 31 1 30 32
M  V30 32 2 31 33
M  V30 33 2 32 34
M  V30 34 1 15 18
M  V30 35 1 17 19
M  V30 36 1 26 27
M  V30 37 1 33 34
M  V30 END BOND
M  V30 BEGIN COLLECTION
M  V30 MDLV30/STERAC1 ATOMS=(1 4)
M  V30 END COLLECTION
M  V30 END CTAB
M  END
>  <Molecule ChEMBL ID>
CHEMBL81592

>  <Smiles>
Cc1oc(-c2ccccc2)nc1CCOc1ccc(OC(C)(Cc2ccccc2)C(=O)O)cc1

>  <IC50_nM>
491

>  <Assay Description>
Binding affinity towards peroxisome proliferator activated receptor gamma

$$$$
CHEMBL81592
Actelion Java MolfileCreator 2.0

  0  0  0  0  0  0              0 V3000
M  V30 BEGIN CTAB
M  V30 COUNTS 34 37 0 0 0
M  V30 BEGIN ATOM
M  V30 1 O 6.0621 0.0 0.0 0
M  V30 2 C 6.9282 -0.5 0.0 0
M  V30 3 O 7.7942 0.0 0.0 0
M  V30 4 C 6.9282 -1.4999 0.0 0 CFG=1
M  V30 5 O 6.0621 -2.0 0.0 0
M  V30 6 C 7.7942 -2.0 0.0 0
M  V30 7 C 6.0621 -1.0 0.0 0
M  V30 8 C 5.1961 -1.4999 0.0 0
M  V30 9 C 7.7942 -2.9999 0.0 0
M  V30 10 C 5.1961 -0.5 0.0 0
M  V30 11 C 4.3301 -1.9999 0.0 0
M  V30 12 C 8.6602 -3.4999 0.0 0
M  V30 13 C 6.9282 -3.5 0.0 0
M  V30 14 C 4.3301 0.0 0.0 0
M  V30 15 C 3.4641 -1.5 0.0 0
M  V30 16 C 8.6602 -4.5 0.0 0
M  V30 17 C 6.9282 -4.5 0.0 0
M  V30 18 C 3.4641 -0.5 0.0 0
M  V30 19 C 7.7942 -5.0 0.0 0
M  V30 20 O 2.598 0.0 0.0 0
M  V30 21 C 1.732 -0.5 0.0 0
M  V30 22 C 0.866 0.0 0.0 0
M  V30 23 C 0.0 -0.5 0.0 0
M  V30 24 N -0.9135 -0.0932 0.0 0
M  V30 25 C -0.1045 -1.4945 0.0 0
M  V30 26 C -1.5826 -0.8364 0.0 0
M  V30 27 O -1.0826 -1.7024 0.0 0
M  V30 28 C 0.6386 -2.1636 0.0 0
M  V30 29 C -2.5771 -0.7318 0.0 0
M  V30 30 C -2.9839 0.1816 0.0 0
M  V30 31 C -3.1649 -1.5408 0.0 0
M  V30 32 C -3.9784 0.2861 0.0 0
M  V30 33 C -4.1595 -1.4363 0.0 0
M  V30 34 C -4.5662 -0.5228 0.0 0
M  V30 END ATOM
M  V30 BEGIN BOND
M  V30 1 2 1 2
M  V30 2 1 2 3
M  V30 3 1 2 4
M  V30 4 1 4 5
M  V30 5 1 4 6
M  V30 6 1 4 7 CFG=1
M  V30 7 1 5 8
M  V30 8 1 6 9
M  V30 9 2 8 10
M  V30 10 1 8 11
M  V30 11 2 9 12
M  V30 12 1 9 13
M  V30 13 1 10 14
M  V30 14 2 11 15
M  V30 15 1 12 16
M  V30 16 2 13 17
M  V30 17 2 14 18
M  V30 18 2 16 19
M  V30 19 1 18 20
M  V30 20 1 20 21
M  V30 21 1 21 22
M  V30 22 1 22 23
M  V30 23 1 23 24
M  V30 24 2 23 25
M  V30 25 2 24 26
M  V30 26 1 25 27
M  V30 27 1 25 28
M  V30 28 1 26 29
M  V30 29 2 29 30
M  V30 30 1 29 31
M  V30 31 1 30 32
M  V30 32 2 31 33
M  V30 33 2 32 34
M  V30 34 1 15 18
M  V30 35 1 17 19
M  V30 36 1 26 27
M  V30 37 1 33 34
M  V30 END BOND
M  V30 BEGIN COLLECTION
M  V30 MDLV30/STERAC1 ATOMS=(1 4)
M  V30 END COLLECTION
M  V30 END CTAB
M  END
>  <Molecule ChEMBL ID>
CHEMBL81592

>  <Smiles>
Cc1oc(-c2ccccc2)nc1CCOc1ccc(OC(C)(Cc2ccccc2)C(=O)O)cc1

>  <IC50_nM>
491

>  <Assay Description>
Displacement of PPARgamma agonist from human PPAR gamma receptor

$$$$
CHEMBL81592
Actelion Java MolfileCreator 2.0

  0  0  0  0  0  0              0 V3000
M  V30 BEGIN CTAB
M  V30 COUNTS 34 37 0 0 0
M  V30 BEGIN ATOM
M  V30 1 O 6.0621 0.0 0.0 0
M  V30 2 C 6.9282 -0.5 0.0 0
M  V30 3 O 7.7942 0.0 0.0 0
M  V30 4 C 6.9282 -1.4999 0.0 0 CFG=1
M  V30 5 O 6.0621 -2.0 0.0 0
M  V30 6 C 7.7942 -2.0 0.0 0
M  V30 7 C 6.0621 -1.0 0.0 0
M  V30 8 C 5.1961 -1.4999 0.0 0
M  V30 9 C 7.7942 -2.9999 0.0 0
M  V30 10 C 5.1961 -0.5 0.0 0
M  V30 11 C 4.3301 -1.9999 0.0 0
M  V30 12 C 8.6602 -3.4999 0.0 0
M  V30 13 C 6.9282 -3.5 0.0 0
M  V30 14 C 4.3301 0.0 0.0 0
M  V30 15 C 3.4641 -1.5 0.0 0
M  V30 16 C 8.6602 -4.5 0.0 0
M  V30 17 C 6.9282 -4.5 0.0 0
M  V30 18 C 3.4641 -0.5 0.0 0
M  V30 19 C 7.7942 -5.0 0.0 0
M  V30 20 O 2.598 0.0 0.0 0
M  V30 21 C 1.732 -0.5 0.0 0
M  V30 22 C 0.866 0.0 0.0 0
M  V30 23 C 0.0 -0.5 0.0 0
M  V30 24 N -0.9135 -0.0932 0.0 0
M  V30 25 C -0.1045 -1.4945 0.0 0
M  V30 26 C -1.5826 -0.8364 0.0 0
M  V30 27 O -1.0826 -1.7024 0.0 0
M  V30 28 C 0.6386 -2.1636 0.0 0
M  V30 29 C -2.5771 -0.7318 0.0 0
M  V30 30 C -2.9839 0.1816 0.0 0
M  V30 31 C -3.1649 -1.5408 0.0 0
M  V30 32 C -3.9784 0.2861 0.0 0
M  V30 33 C -4.1595 -1.4363 0.0 0
M  V30 34 C -4.5662 -0.5228 0.0 0
M  V30 END ATOM
M  V30 BEGIN BOND
M  V30 1 2 1 2
M  V30 2 1 2 3
M  V30 3 1 2 4
M  V30 4 1 4 5
M  V30 5 1 4 6
M  V30 6 1 4 7 CFG=1
M  V30 7 1 5 8
M  V30 8 1 6 9
M  V30 9 2 8 10
M  V30 10 1 8 11
M  V30 11 2 9 12
M  V30 12 1 9 13
M  V30 13 1 10 14
M  V30 14 2 11 15
M  V30 15 1 12 16
M  V30 16 2 13 17
M  V30 17 2 14 18
M  V30 18 2 16 19
M  V30 19 1 18 20
M  V30 20 1 20 21
M  V30 21 1 21 22
M  V30 22 1 22 23
M  V30 23 1 23 24
M  V30 24 2 23 25
M  V30 25 2 24 26
M  V30 26 1 25 27
M  V30 27 1 25 28
M  V30 28 1 26 29
M  V30 29 2 29 30
M  V30 30 1 29 31
M  V30 31 1 30 32
M  V30 32 2 31 33
M  V30 33 2 32 34
M  V30 34 1 15 18
M  V30 35 1 17 19
M  V30 36 1 26 27
M  V30 37 1 33 34
M  V30 END BOND
M  V30 BEGIN COLLECTION
M  V30 MDLV30/STERAC1 ATOMS=(1 4)
M  V30 END COLLECTION
M  V30 END CTAB
M  END
>  <Molecule ChEMBL ID>
CHEMBL81592

>  <Smiles>
Cc1oc(-c2ccccc2)nc1CCOc1ccc(OC(C)(Cc2ccccc2)C(=O)O)cc1

>  <IC50_nM>
491

>  <Assay Description>
Agonist activity at PPARgamma

$$$$
CHEMBL3959627
Actelion Java MolfileCreator 2.0

  0  0  0  0  0  0              0 V3000
M  V30 BEGIN CTAB
M  V30 COUNTS 33 35 0 0 0
M  V30 BEGIN ATOM
M  V30 1 S 9.0932 0.0 0.0 0
M  V30 2 O 9.8432 1.299 0.0 0
M  V30 3 O 8.3432 1.299 0.0 0
M  V30 4 N 7.7942 -0.75 0.0 0
M  V30 5 C 10.3923 -0.75 0.0 0
M  V30 6 C 6.4951 0.0 0.0 0
M  V30 7 C 10.3923 -2.25 0.0 0
M  V30 8 C 11.6913 0.0 0.0 0
M  V30 9 O 6.4951 1.5 0.0 0
M  V30 10 N 5.1961 -0.75 0.0 0
M  V30 11 C 11.6913 -3.0 0.0 0
M  V30 12 C 12.9903 -0.75 0.0 0
M  V30 13 C 3.8971 0.0 0.0 0
M  V30 14 C 12.9903 -2.25 0.0 0
M  V30 15 C 2.598 -0.75 0.0 0
M  V30 16 N 14.2894 -3.0 0.0 0
M  V30 17 C 1.299 0.0 0.0 0
M  V30 18 C 15.5884 -2.25 0.0 0
M  V30 19 C 0.0 -0.75 0.0 0
M  V30 20 O 15.5884 -0.75 0.0 0
M  V30 21 C 16.8875 -3.0 0.0 0
M  V30 22 N 18.1865 -2.25 0.0 0
M  V30 23 C 19.4855 -3.0 0.0 0
M  V30 24 C 18.1865 -0.75 0.0 0
M  V30 25 O 19.4855 -4.5 0.0 0
M  V30 26 C 20.7846 -2.25 0.0 0
M  V30 27 C 19.4855 0.0 0.0 0
M  V30 28 C 16.8875 0.0 0.0 0
M  V30 29 N 20.7846 -0.75 0.0 0
M  V30 30 C 22.0836 -3.0 0.0 0
M  V30 31 C 19.4855 1.5 0.0 0
M  V30 32 C 16.8875 1.5 0.0 0
M  V30 33 C 18.1865 2.25 0.0 0
M  V30 END ATOM
M  V30 BEGIN BOND
M  V30 1 2 1 2
M  V30 2 2 1 3
M  V30 3 1 1 4
M  V30 4 1 1 5
M  V30 5 1 4 6
M  V30 6 2 5 7
M  V30 7 1 5 8
M  V30 8 2 6 9
M  V30 9 1 6 10
M  V30 10 1 7 11
M  V30 11 2 8 12
M  V30 12 1 10 13
M  V30 13 2 11 14
M  V30 14 1 13 15
M  V30 15 1 14 16
M  V30 16 1 15 17
M  V30 17 1 16 18
M  V30 18 1 17 19
M  V30 19 2 18 20
M  V30 20 1 18 21
M  V30 21 1 21 22
M  V30 22 1 22 23
M  V30 23 1 22 24
M  V30 24 2 23 25
M  V30 25 1 23 26
M  V30 26 2 24 27
M  V30 27 1 24 28
M  V30 28 2 26 29
M  V30 29 1 26 30
M  V30 30 1 27 31
M  V30 31 2 28 32
M  V30 32 2 31 33
M  V30 33 1 12 14
M  V30 34 1 27 29
M  V30 35 1 32 33
M  V30 END BOND
M  V30 END CTAB
M  END
>  <Molecule ChEMBL ID>
CHEMBL3959627

>  <Smiles>
CCCCNC(=O)NS(=O)(=O)c1ccc(NC(=O)Cn2c(=O)c(C)nc3ccccc32)cc1

>  <IC50_nM>
491

>  <Assay Description>
Displacement of fluormone-PPARgamma Green from recombinant human N-terminal GST-tagged PPARgamma-LBD by fluorescence polarization assay

$$$$
CHEMBL1090878
Actelion Java MolfileCreator 2.0

  0  0  0  0  0  0              0 V3000
M  V30 BEGIN CTAB
M  V30 COUNTS 39 42 0 0 0
M  V30 BEGIN ATOM
M  V30 1 O 5.1961 1.4999 0.0 0
M  V30 2 C 4.3301 0.9999 0.0 0
M  V30 3 O 4.3301 0.0 0.0 0
M  V30 4 N 3.4641 1.4999 0.0 0
M  V30 5 C 5.1961 -0.5 0.0 0
M  V30 6 C 2.598 1.0 0.0 0
M  V30 7 C 3.4641 2.4999 0.0 0
M  V30 8 C 6.0621 0.0 0.0 0
M  V30 9 C 5.1961 -1.5 0.0 0
M  V30 10 C 1.732 1.5 0.0 0
M  V30 11 C 4.3301 2.9999 0.0 0
M  V30 12 C 6.9282 -0.5 0.0 0
M  V30 13 C 6.0621 -2.0 0.0 0
M  V30 14 C 1.732 2.5 0.0 0
M  V30 15 C 0.866 1.0 0.0 0
M  V30 16 O 5.1961 2.4999 0.0 0
M  V30 17 O 4.3301 3.9999 0.0 0
M  V30 18 C 6.9282 -1.5 0.0 0
M  V30 19 C 0.866 3.0 0.0 0
M  V30 20 C 0.0 1.5 0.0 0
M  V30 21 C 7.7942 -2.0 0.0 0
M  V30 22 O 0.866 4.0 0.0 0
M  V30 23 C 0.0 2.5 0.0 0
M  V30 24 C 1.732 4.5 0.0 0
M  V30 25 C 1.732 5.5 0.0 0
M  V30 26 N 2.541 6.0877 0.0 0
M  V30 27 C 0.923 6.0877 0.0 0
M  V30 28 C 2.232 7.0388 0.0 0
M  V30 29 O 1.232 7.0388 0.0 0
M  V30 30 C -0.028 5.7787 0.0 0
M  V30 31 C 2.8198 7.8478 0.0 0
M  V30 32 C 3.8143 7.7433 0.0 0
M  V30 33 C 2.413 8.7614 0.0 0
M  V30 34 C 4.4021 8.5523 0.0 0
M  V30 35 C 3.0008 9.5704 0.0 0
M  V30 36 C 3.9954 9.4658 0.0 0
M  V30 37 C 4.5831 10.2749 0.0 0
M  V30 38 C 5.5777 10.1703 0.0 0
M  V30 39 C 4.1764 11.1884 0.0 0
M  V30 END ATOM
M  V30 BEGIN BOND
M  V30 1 2 1 2
M  V30 2 1 2 3
M  V30 3 1 2 4
M  V30 4 1 3 5
M  V30 5 1 4 6
M  V30 6 1 4 7
M  V30 7 2 5 8
M  V30 8 1 5 9
M  V30 9 1 6 10
M  V30 10 1 7 11
M  V30 11 1 8 12
M  V30 12 2 9 13
M  V30 13 2 10 14
M  V30 14 1 10 15
M  V30 15 2 11 16
M  V30 16 1 11 17
M  V30 17 2 12 18
M  V30 18 1 14 19
M  V30 19 2 15 20
M  V30 20 1 18 21
M  V30 21 1 19 22
M  V30 22 2 19 23
M  V30 23 1 22 24
M  V30 24 1 24 25
M  V30 25 1 25 26
M  V30 26 2 25 27
M  V30 27 2 26 28
M  V30 28 1 27 29
M  V30 29 1 27 30
M  V30 30 1 28 31
M  V30 31 2 31 32
M  V30 32 1 31 33
M  V30 33 1 32 34
M  V30 34 2 33 35
M  V30 35 2 34 36
M  V30 36 1 36 37
M  V30 37 1 37 38
M  V30 38 1 37 39
M  V30 39 1 13 18
M  V30 40 1 20 23
M  V30 41 1 28 29
M  V30 42 1 35 36
M  V30 END BOND
M  V30 END CTAB
M  END
>  <Molecule ChEMBL ID>
CHEMBL1090878

>  <Smiles>
Cc1ccc(OC(=O)N(CC(=O)O)Cc2cccc(OCc3nc(-c4ccc(C(C)C)cc4)oc3C)c2)cc1

>  <IC50_nM>
497

>  <Assay Description>
Binding affinity to human His-tagged PPARgamma LBD (Q203-Y477) expressed in Escherichia coli BL21 (DE3) by fluorescence polarization assay

$$$$
CHEMBL256142
Actelion Java MolfileCreator 2.0

  0  0  0  0  0  0              0 V3000
M  V30 BEGIN CTAB
M  V30 COUNTS 37 40 0 0 0
M  V30 BEGIN ATOM
M  V30 1 O 6.0621 -3.0 0.0 0
M  V30 2 C 5.1961 -3.5 0.0 0
M  V30 3 O 5.1961 -4.5 0.0 0
M  V30 4 N 4.3301 -3.0 0.0 0
M  V30 5 C 4.3301 -5.0 0.0 0
M  V30 6 C 3.4641 -3.5 0.0 0
M  V30 7 C 4.3301 -2.0 0.0 0
M  V30 8 C 4.3301 -6.0 0.0 0
M  V30 9 C 2.598 -3.0 0.0 0
M  V30 10 C 3.4641 -1.5 0.0 0
M  V30 11 C 3.4641 -6.5 0.0 0
M  V30 12 C 2.598 -2.0 0.0 0 CFG=1
M  V30 13 C 1.732 -3.5 0.0 0
M  V30 14 C 1.732 -1.5 0.0 0
M  V30 15 C 1.732 -4.5 0.0 0
M  V30 16 O 0.866 -2.0 0.0 0
M  V30 17 O 1.732 -0.5 0.0 0
M  V30 18 C 0.866 -5.0 0.0 0
M  V30 19 C 2.598 -4.9999 0.0 0
M  V30 20 C 0.866 -5.9999 0.0 0
M  V30 21 C 2.598 -5.9999 0.0 0
M  V30 22 O 0.0 -6.5 0.0 0
M  V30 23 C 1.732 -6.4999 0.0 0
M  V30 24 C 0.0 -7.5 0.0 0
M  V30 25 C -0.866 -7.9999 0.0 0
M  V30 26 C -0.866 -9.0 0.0 0
M  V30 27 N -1.675 -9.5877 0.0 0
M  V30 28 C -0.057 -9.5877 0.0 0
M  V30 29 C -1.366 -10.5388 0.0 0
M  V30 30 O -0.366 -10.5388 0.0 0
M  V30 31 C 0.894 -9.2787 0.0 0
M  V30 32 C -1.9538 -11.3478 0.0 0
M  V30 33 C -2.9483 -11.2433 0.0 0
M  V30 34 C -1.547 -12.2614 0.0 0
M  V30 35 C -3.5361 -12.0523 0.0 0
M  V30 36 C -2.1348 -13.0704 0.0 0
M  V30 37 C -3.1293 -12.9658 0.0 0
M  V30 END ATOM
M  V30 BEGIN BOND
M  V30 1 2 1 2
M  V30 2 1 2 3
M  V30 3 1 2 4
M  V30 4 1 3 5
M  V30 5 1 4 6
M  V30 6 1 4 7
M  V30 7 1 5 8
M  V30 8 2 6 9
M  V30 9 1 7 10
M  V30 10 1 8 11
M  V30 11 1 9 12
M  V30 12 1 9 13
M  V30 13 1 12 14 CFG=3
M  V30 14 1 13 15
M  V30 15 2 14 16
M  V30 16 1 14 17
M  V30 17 2 15 18
M  V30 18 1 15 19
M  V30 19 1 18 20
M  V30 20 2 19 21
M  V30 21 1 20 22
M  V30 22 2 20 23
M  V30 23 1 22 24
M  V30 24 1 24 25
M  V30 25 1 25 26
M  V30 26 1 26 27
M  V30 27 2 26 28
M  V30 28 2 27 29
M  V30 29 1 28 30
M  V30 30 1 28 31
M  V30 31 1 29 32
M  V30 32 2 32 33
M  V30 33 1 32 34
M  V30 34 1 33 35
M  V30 35 2 34 36
M  V30 36 2 35 37
M  V30 37 1 10 12
M  V30 38 1 21 23
M  V30 39 1 29 30
M  V30 40 1 36 37
M  V30 END BOND
M  V30 BEGIN COLLECTION
M  V30 MDLV30/STERAC1 ATOMS=(1 12)
M  V30 END COLLECTION
M  V30 END CTAB
M  END
>  <Molecule ChEMBL ID>
CHEMBL256142

>  <Smiles>
CCCOC(=O)N1C=C(Cc2cccc(OCCc3nc(-c4ccccc4)oc3C)c2)C(C(=O)O)CC1

>  <IC50_nM>
499

>  <Assay Description>
Binding affinity at human PPARalpha by fluorescence polarization

$$$$
CHEMBL3699433
Actelion Java MolfileCreator 2.0

  0  0  0  0  0  0              0 V3000
M  V30 BEGIN CTAB
M  V30 COUNTS 46 51 0 0 0
M  V30 BEGIN ATOM
M  V30 1 O 10.212 -3.0316 0.0 0
M  V30 2 C 10.8811 -3.7748 0.0 0
M  V30 3 N 11.8592 -3.5669 0.0 0
M  V30 4 C 10.5721 -4.7258 0.0 0
M  V30 5 C 12.266 -2.6533 0.0 0
M  V30 6 C 12.6024 -4.236 0.0 0
M  V30 7 C 9.5939 -4.9337 0.0 0
M  V30 8 C 11.2412 -5.469 0.0 0
M  V30 9 C 13.2605 -2.7579 0.0 0 CFG=2
M  V30 10 C 13.4684 -3.736 0.0 0
M  V30 11 C 8.9248 -4.1906 0.0 0
M  V30 12 C 9.2849 -5.8848 0.0 0
M  V30 13 C 10.9322 -6.42 0.0 0
M  V30 14 O 13.9296 -2.0147 0.0 0
M  V30 15 C 9.2338 -3.2395 0.0 0
M  V30 16 C 7.9466 -4.3985 0.0 0
M  V30 17 C 9.954 -6.6279 0.0 0
M  V30 18 C 8.5647 -2.4964 0.0 0
M  V30 19 C 7.2775 -3.6554 0.0 0
M  V30 20 C 7.5865 -2.7043 0.0 0
M  V30 21 C 6.9174 -1.9612 0.0 0
M  V30 22 N 5.9392 -2.1691 0.0 0
M  V30 23 C 5.1961 -1.4999 0.0 0
M  V30 24 C 5.5325 -3.0826 0.0 0
M  V30 25 C 4.3301 -1.9999 0.0 0
M  V30 26 C 5.1961 -0.4999 0.0 0
M  V30 27 C 4.538 -2.9781 0.0 0
M  V30 28 C 6.0325 -3.9487 0.0 0
M  V30 29 C 3.4641 -1.5 0.0 0
M  V30 30 C 4.3301 0.0 0.0 0
M  V30 31 C 3.8689 -3.7212 0.0 0
M  V30 32 C 3.4641 -0.5 0.0 0
M  V30 33 C 2.598 0.0 0.0 0
M  V30 34 O 2.598 1.0 0.0 0
M  V30 35 N 1.732 -0.5 0.0 0
M  V30 36 C 0.866 0.0 0.0 0 CFG=2
M  V30 37 C 0.866 1.0 0.0 0
M  V30 38 C 0.0 -0.5 0.0 0
M  V30 39 C 1.732 1.5 0.0 0
M  V30 40 C 0.0 1.4999 0.0 0
M  V30 41 C 1.732 2.5 0.0 0
M  V30 42 C 0.0 2.5 0.0 0
M  V30 43 C 0.866 2.9999 0.0 0
M  V30 44 C 2.598 3.0 0.0 0
M  V30 45 C 3.4641 2.5 0.0 0
M  V30 46 C 2.598 4.0 0.0 0
M  V30 END ATOM
M  V30 BEGIN BOND
M  V30 1 2 1 2
M  V30 2 1 2 3
M  V30 3 1 2 4
M  V30 4 1 3 5
M  V30 5 1 3 6
M  V30 6 2 4 7
M  V30 7 1 4 8
M  V30 8 1 5 9
M  V30 9 1 6 10
M  V30 10 1 7 11
M  V30 11 1 7 12
M  V30 12 2 8 13
M  V30 13 1 9 14 CFG=1
M  V30 14 2 11 15
M  V30 15 1 11 16
M  V30 16 2 12 17
M  V30 17 1 15 18
M  V30 18 2 16 19
M  V30 19 2 18 20
M  V30 20 1 20 21
M  V30 21 1 21 22
M  V30 22 1 22 23
M  V30 23 1 22 24
M  V30 24 2 23 25
M  V30 25 1 23 26
M  V30 26 2 24 27
M  V30 27 1 24 28
M  V30 28 1 25 29
M  V30 29 2 26 30
M  V30 30 1 27 31
M  V30 31 2 29 32
M  V30 32 1 32 33
M  V30 33 2 33 34
M  V30 34 1 33 35
M  V30 35 1 35 36
M  V30 36 1 36 37
M  V30 37 1 36 38 CFG=1
M  V30 38 2 37 39
M  V30 39 1 37 40
M  V30 40 1 39 41
M  V30 41 2 40 42
M  V30 42 2 41 43
M  V30 43 1 41 44
M  V30 44 1 44 45
M  V30 45 1 44 46
M  V30 46 1 9 10
M  V30 47 1 13 17
M  V30 48 1 19 20
M  V30 49 1 25 27
M  V30 50 1 30 32
M  V30 51 1 42 43
M  V30 END BOND
M  V30 BEGIN COLLECTION
M  V30 MDLV30/STEABS ATOMS=(2 9 36)
M  V30 END COLLECTION
M  V30 END CTAB
M  END
>  <Molecule ChEMBL ID>
CHEMBL3699433

>  <Smiles>
Cc1c(C)n(Cc2ccc(-c3ccccc3C(=O)N3CC[C@H](O)C3)cc2)c2ccc(C(=O)N[C@@H](C)c3cccc(C(C)C)c3)cc12

>  <IC50_nM>
500

>  <Assay Description>
Lanthascreen Competitive Binding Assay: The assay was performed according to manufacturer protocol. A mixture of nM GST-PPARG-LBD, 5 nM Tb-GST-antibody, 5 nM Fluormone Pan-PPAR Green, and serial dilutions of the experimental compound, beginning at 10 ׬M downwards, was added to wells of black 384-well low-volume plates (Greiner) to a total volume of 18 ׬L. All dilutions were made in TR-FRET assay buffer C. DMSO at 2% final concentration was used as a no-ligand control. Experiment was performed in triplicate, and incubated for 2 hours in the dark prior to assay read in Perkin Elmer ViewLux ultra HTS microplate reader. FRET signal was measured by excitation at 340 nm and emission at 520 nm for fluorescein and 490 nm for terbium. Fold change over DMSO was calculated using GraphPad Prism Software (La Jolla, Calif.) by calculating 520 nm/490 nm ratio. Graphs were plotted as fold change of FRET signal for compound treatment over DMSO-only control.

$$$$
CHEMBL3695902
Actelion Java MolfileCreator 2.0

  0  0  0  0  0  0              0 V3000
M  V30 BEGIN CTAB
M  V30 COUNTS 39 44 0 0 0
M  V30 BEGIN ATOM
M  V30 1 O 3.4641 -0.4999 0.0 0
M  V30 2 C 2.598 0.0 0.0 0
M  V30 3 N 1.732 -0.4999 0.0 0
M  V30 4 C 2.598 1.0 0.0 0
M  V30 5 C 0.866 0.0 0.0 0 CFG=1
M  V30 6 C 1.732 1.4999 0.0 0
M  V30 7 C 3.4641 1.5 0.0 0
M  V30 8 C 0.0 -0.4999 0.0 0
M  V30 9 C 0.866 1.0 0.0 0
M  V30 10 C 1.732 2.4999 0.0 0
M  V30 11 C 3.4641 2.5 0.0 0
M  V30 12 C 0.0 -1.5 0.0 0
M  V30 13 C -0.866 0.0 0.0 0
M  V30 14 C 2.598 3.0 0.0 0
M  V30 15 C 0.9889 3.1691 0.0 0
M  V30 16 C -0.866 -1.9999 0.0 0
M  V30 17 C 0.866 -1.9999 0.0 0
M  V30 18 C -1.732 -0.4999 0.0 0
M  V30 19 N 2.3901 3.9781 0.0 0
M  V30 20 C 1.3956 4.0826 0.0 0
M  V30 21 C 0.0107 2.9612 0.0 0
M  V30 22 N -1.732 -1.4999 0.0 0
M  V30 23 C -0.866 -3.0 0.0 0
M  V30 24 C 0.866 -2.9999 0.0 0
M  V30 25 C 3.0592 4.7212 0.0 0
M  V30 26 C 0.8956 4.9487 0.0 0
M  V30 27 C 0.0 -3.5 0.0 0
M  V30 28 C 2.7502 5.6723 0.0 0
M  V30 29 C 3.4194 6.4154 0.0 0
M  V30 30 C 1.7721 5.8802 0.0 0
M  V30 31 C 3.1103 7.3665 0.0 0
M  V30 32 C 1.4631 6.8313 0.0 0
M  V30 33 C 2.1322 7.5744 0.0 0
M  V30 34 C 1.8232 8.5255 0.0 0
M  V30 35 C 2.4923 9.2686 0.0 0
M  V30 36 C 0.845 8.7334 0.0 0
M  V30 37 C 2.1833 10.2197 0.0 0
M  V30 38 C 0.536 9.6844 0.0 0
M  V30 39 C 1.2051 10.4276 0.0 0
M  V30 END ATOM
M  V30 BEGIN BOND
M  V30 1 2 1 2
M  V30 2 1 2 3
M  V30 3 1 2 4
M  V30 4 1 3 5
M  V30 5 2 4 6
M  V30 6 1 4 7
M  V30 7 1 5 8
M  V30 8 1 5 9 CFG=1
M  V30 9 1 6 10
M  V30 10 2 7 11
M  V30 11 1 8 12
M  V30 12 2 8 13
M  V30 13 2 10 14
M  V30 14 1 10 15
M  V30 15 1 12 16
M  V30 16 2 12 17
M  V30 17 1 13 18
M  V30 18 1 14 19
M  V30 19 2 15 20
M  V30 20 1 15 21
M  V30 21 1 16 22
M  V30 22 2 16 23
M  V30 23 1 17 24
M  V30 24 1 19 25
M  V30 25 1 20 26
M  V30 26 1 23 27
M  V30 27 1 25 28
M  V30 28 2 28 29
M  V30 29 1 28 30
M  V30 30 1 29 31
M  V30 31 2 30 32
M  V30 32 2 31 33
M  V30 33 1 33 34
M  V30 34 2 34 35
M  V30 35 1 34 36
M  V30 36 1 35 37
M  V30 37 2 36 38
M  V30 38 2 37 39
M  V30 39 1 11 14
M  V30 40 2 18 22
M  V30 41 1 19 20
M  V30 42 2 24 27
M  V30 43 1 32 33
M  V30 44 1 38 39
M  V30 END BOND
M  V30 BEGIN COLLECTION
M  V30 MDLV30/STEABS ATOMS=(1 5)
M  V30 END COLLECTION
M  V30 END CTAB
M  END
>  <Molecule ChEMBL ID>
CHEMBL3695902

>  <Smiles>
Cc1c(C)n(Cc2ccc(-c3ccccc3)cc2)c2ccc(C(=O)N[C@H](C)c3ccnc4ccccc34)cc12

>  <IC50_nM>
512

>  <Assay Description>
Lanthascreen Competitive Binding Assay: The assay was performed according to manufacturer protocol. A mixture of nM GST-PPARG-LBD, 5 nM Tb-GST-antibody, 5 nM Fluormone Pan-PPAR Green, and serial dilutions of the experimental compound, beginning at 10 ׬M downwards, was added to wells of black 384-well low-volume plates (Greiner) to a total volume of 18 ׬L. All dilutions were made in TR-FRET assay buffer C. DMSO at 2% final concentration was used as a no-ligand control. Experiment was performed in triplicate, and incubated for 2 hours in the dark prior to assay read in Perkin Elmer ViewLux ultra HTS microplate reader. FRET signal was measured by excitation at 340 nm and emission at 520 nm for fluorescein and 490 nm for terbium. Fold change over DMSO was calculated using GraphPad Prism Software (La Jolla, Calif.) by calculating 520 nm/490 nm ratio. Graphs were plotted as fold change of FRET signal for compound treatment over DMSO-only control.

$$$$
CHEMBL378160
Actelion Java MolfileCreator 2.0

  0  0  0  0  0  0              0 V3000
M  V30 BEGIN CTAB
M  V30 COUNTS 28 31 0 0 0
M  V30 BEGIN ATOM
M  V30 1 S 2.598 -0.75 0.0 0
M  V30 2 O 1.848 -2.049 0.0 0
M  V30 3 O 3.348 -2.049 0.0 0
M  V30 4 N 1.299 0.0 0.0 0
M  V30 5 C 3.8971 0.0 0.0 0
M  V30 6 C 0.0 -0.75 0.0 0
M  V30 7 C 5.1961 -0.75 0.0 0
M  V30 8 C 3.8971 1.5 0.0 0
M  V30 9 N -1.3703 -0.1398 0.0 0
M  V30 10 C -0.1567 -2.2417 0.0 0
M  V30 11 C 6.4951 0.0 0.0 0
M  V30 12 C 5.1961 2.25 0.0 0
M  V30 13 N -2.374 -1.2546 0.0 0
M  V30 14 C -1.6821 1.3273 0.0 0
M  V30 15 C -1.624 -2.5536 0.0 0
M  V30 16 F 7.7942 -0.75 0.0 0
M  V30 17 C 6.4951 1.5 0.0 0
M  V30 18 C -0.5674 2.331 0.0 0
M  V30 19 C -3.1087 1.7908 0.0 0
M  V30 20 C -2.2341 -3.9239 0.0 0
M  V30 21 C -0.8793 3.7982 0.0 0
M  V30 22 C -3.4206 3.258 0.0 0
M  V30 23 S -3.7013 -4.2358 0.0 0
M  V30 24 C -1.4841 -5.223 0.0 0
M  V30 25 C -2.3059 4.2617 0.0 0
M  V30 26 C -3.8581 -5.7276 0.0 0
M  V30 27 C -2.4878 -6.3377 0.0 0
M  V30 28 F -2.6177 5.7289 0.0 0
M  V30 END ATOM
M  V30 BEGIN BOND
M  V30 1 2 1 2
M  V30 2 2 1 3
M  V30 3 1 1 4
M  V30 4 1 1 5
M  V30 5 1 4 6
M  V30 6 2 5 7
M  V30 7 1 5 8
M  V30 8 1 6 9
M  V30 9 2 6 10
M  V30 10 1 7 11
M  V30 11 2 8 12
M  V30 12 1 9 13
M  V30 13 1 9 14
M  V30 14 1 10 15
M  V30 15 1 11 16
M  V30 16 2 11 17
M  V30 17 2 14 18
M  V30 18 1 14 19
M  V30 19 1 15 20
M  V30 20 1 18 21
M  V30 21 2 19 22
M  V30 22 1 20 23
M  V30 23 2 20 24
M  V30 24 2 21 25
M  V30 25 1 23 26
M  V30 26 1 24 27
M  V30 27 1 25 28
M  V30 28 1 12 17
M  V30 29 2 13 15
M  V30 30 1 22 25
M  V30 31 2 26 27
M  V30 END BOND
M  V30 END CTAB
M  END
>  <Molecule ChEMBL ID>
CHEMBL378160

>  <Smiles>
O=S(=O)(Nc1cc(-c2cccs2)nn1-c1ccc(F)cc1)c1cccc(F)c1

>  <IC50_nM>
512

>  <Assay Description>
Displacement of [3H]rosiglitazone from PPARgamma by SPA

$$$$
CHEMBL378160
Actelion Java MolfileCreator 2.0

  0  0  0  0  0  0              0 V3000
M  V30 BEGIN CTAB
M  V30 COUNTS 28 31 0 0 0
M  V30 BEGIN ATOM
M  V30 1 S 2.598 -0.75 0.0 0
M  V30 2 O 1.848 -2.049 0.0 0
M  V30 3 O 3.348 -2.049 0.0 0
M  V30 4 N 1.299 0.0 0.0 0
M  V30 5 C 3.8971 0.0 0.0 0
M  V30 6 C 0.0 -0.75 0.0 0
M  V30 7 C 5.1961 -0.75 0.0 0
M  V30 8 C 3.8971 1.5 0.0 0
M  V30 9 N -1.3703 -0.1398 0.0 0
M  V30 10 C -0.1567 -2.2417 0.0 0
M  V30 11 C 6.4951 0.0 0.0 0
M  V30 12 C 5.1961 2.25 0.0 0
M  V30 13 N -2.374 -1.2546 0.0 0
M  V30 14 C -1.6821 1.3273 0.0 0
M  V30 15 C -1.624 -2.5536 0.0 0
M  V30 16 F 7.7942 -0.75 0.0 0
M  V30 17 C 6.4951 1.5 0.0 0
M  V30 18 C -0.5674 2.331 0.0 0
M  V30 19 C -3.1087 1.7908 0.0 0
M  V30 20 C -2.2341 -3.9239 0.0 0
M  V30 21 C -0.8793 3.7982 0.0 0
M  V30 22 C -3.4206 3.258 0.0 0
M  V30 23 S -3.7013 -4.2358 0.0 0
M  V30 24 C -1.4841 -5.223 0.0 0
M  V30 25 C -2.3059 4.2617 0.0 0
M  V30 26 C -3.8581 -5.7276 0.0 0
M  V30 27 C -2.4878 -6.3377 0.0 0
M  V30 28 F -2.6177 5.7289 0.0 0
M  V30 END ATOM
M  V30 BEGIN BOND
M  V30 1 2 1 2
M  V30 2 2 1 3
M  V30 3 1 1 4
M  V30 4 1 1 5
M  V30 5 1 4 6
M  V30 6 2 5 7
M  V30 7 1 5 8
M  V30 8 1 6 9
M  V30 9 2 6 10
M  V30 10 1 7 11
M  V30 11 2 8 12
M  V30 12 1 9 13
M  V30 13 1 9 14
M  V30 14 1 10 15
M  V30 15 1 11 16
M  V30 16 2 11 17
M  V30 17 2 14 18
M  V30 18 1 14 19
M  V30 19 1 15 20
M  V30 20 1 18 21
M  V30 21 2 19 22
M  V30 22 1 20 23
M  V30 23 2 20 24
M  V30 24 2 21 25
M  V30 25 1 23 26
M  V30 26 1 24 27
M  V30 27 1 25 28
M  V30 28 1 12 17
M  V30 29 2 13 15
M  V30 30 1 22 25
M  V30 31 2 26 27
M  V30 END BOND
M  V30 END CTAB
M  END
>  <Molecule ChEMBL ID>
CHEMBL378160

>  <Smiles>
O=S(=O)(Nc1cc(-c2cccs2)nn1-c1ccc(F)cc1)c1cccc(F)c1

>  <IC50_nM>
512

>  <Assay Description>
Displacement of fluormone PPAR-green from N-terminal His-tagged human PPARgamma-LBD after 2 hrs by fluorescence polarization assay

$$$$
CHEMBL489507
Actelion Java MolfileCreator 2.0

  0  0  0  0  0  0              0 V3000
M  V30 BEGIN CTAB
M  V30 COUNTS 36 40 0 0 0
M  V30 BEGIN ATOM
M  V30 1 O 4.8883 -5.3109 0.0 0
M  V30 2 C 5.6314 -4.6418 0.0 0
M  V30 3 O 6.5825 -4.9508 0.0 0
M  V30 4 C 5.4235 -3.6636 0.0 0
M  V30 5 C 6.1667 -2.9945 0.0 0
M  V30 6 N 7.1448 -3.2024 0.0 0
M  V30 7 C 6.0621 -2.0 0.0 0
M  V30 8 N 7.6448 -2.3364 0.0 0
M  V30 9 N 6.9757 -1.5932 0.0 0
M  V30 10 C 5.1961 -1.4999 0.0 0
M  V30 11 C 8.6393 -2.2318 0.0 0
M  V30 12 C 5.1961 -0.5 0.0 0
M  V30 13 C 4.3301 -1.9999 0.0 0
M  V30 14 C 9.2271 -3.0408 0.0 0
M  V30 15 C 9.0461 -1.3183 0.0 0
M  V30 16 C 4.3301 0.0 0.0 0
M  V30 17 C 3.4641 -1.5 0.0 0
M  V30 18 C 10.2216 -2.9363 0.0 0
M  V30 19 C 10.0406 -1.2138 0.0 0
M  V30 20 C 3.4641 -0.5 0.0 0
M  V30 21 C 10.6284 -2.0228 0.0 0
M  V30 22 O 2.598 0.0 0.0 0
M  V30 23 C 1.732 -0.5 0.0 0
M  V30 24 C 0.866 0.0 0.0 0
M  V30 25 C 0.0 -0.5 0.0 0
M  V30 26 N -0.9135 -0.0932 0.0 0
M  V30 27 C -0.1045 -1.4945 0.0 0
M  V30 28 C -1.5826 -0.8364 0.0 0
M  V30 29 O -1.0826 -1.7024 0.0 0
M  V30 30 C 0.6386 -2.1636 0.0 0
M  V30 31 C -2.5771 -0.7318 0.0 0
M  V30 32 C -2.9839 0.1816 0.0 0
M  V30 33 C -3.1649 -1.5408 0.0 0
M  V30 34 C -3.9784 0.2861 0.0 0
M  V30 35 C -4.1595 -1.4363 0.0 0
M  V30 36 C -4.5662 -0.5228 0.0 0
M  V30 END ATOM
M  V30 BEGIN BOND
M  V30 1 2 1 2
M  V30 2 1 2 3
M  V30 3 1 2 4
M  V30 4 1 4 5
M  V30 5 2 5 6
M  V30 6 1 5 7
M  V30 7 1 6 8
M  V30 8 2 7 9
M  V30 9 1 7 10
M  V30 10 1 8 11
M  V30 11 2 10 12
M  V30 12 1 10 13
M  V30 13 2 11 14
M  V30 14 1 11 15
M  V30 15 1 12 16
M  V30 16 2 13 17
M  V30 17 1 14 18
M  V30 18 2 15 19
M  V30 19 2 16 20
M  V30 20 2 18 21
M  V30 21 1 20 22
M  V30 22 1 22 23
M  V30 23 1 23 24
M  V30 24 1 24 25
M  V30 25 1 25 26
M  V30 26 2 25 27
M  V30 27 2 26 28
M  V30 28 1 27 29
M  V30 29 1 27 30
M  V30 30 1 28 31
M  V30 31 2 31 32
M  V30 32 1 31 33
M  V30 33 1 32 34
M  V30 34 2 33 35
M  V30 35 2 34 36
M  V30 36 1 8 9
M  V30 37 1 17 20
M  V30 38 1 19 21
M  V30 39 1 28 29
M  V30 40 1 35 36
M  V30 END BOND
M  V30 END CTAB
M  END
>  <Molecule ChEMBL ID>
CHEMBL489507

>  <Smiles>
Cc1oc(-c2ccccc2)nc1CCOc1ccc(-c2nn(-c3ccccc3)nc2CC(=O)O)cc1

>  <IC50_nM>
517

>  <Assay Description>
Binding affinity to PPARgamma by fluorescence polarization assay

$$$$
CHEMBL391283
Actelion Java MolfileCreator 2.0

  0  0  0  0  0  0              0 V3000
M  V30 BEGIN CTAB
M  V30 COUNTS 32 34 0 0 0
M  V30 BEGIN ATOM
M  V30 1 O 8.6602 -4.5 0.0 0
M  V30 2 C 8.6602 -3.5 0.0 0
M  V30 3 O 9.5262 -3.0 0.0 0
M  V30 4 C 7.7942 -3.0 0.0 0
M  V30 5 C 7.7942 -2.0 0.0 0
M  V30 6 C 6.9282 -1.5 0.0 0
M  V30 7 C 6.9282 -0.5 0.0 0
M  V30 8 C 6.0621 -2.0 0.0 0
M  V30 9 C 6.0621 0.0 0.0 0
M  V30 10 C 7.7942 0.0 0.0 0
M  V30 11 C 5.1961 -1.5 0.0 0
M  V30 12 C 5.1961 -0.5 0.0 0
M  V30 13 O 4.3301 0.0 0.0 0
M  V30 14 C 3.4641 -0.5 0.0 0
M  V30 15 C 2.598 0.0 0.0 0
M  V30 16 C 1.732 -0.5 0.0 0 CFG=2
M  V30 17 O 0.866 0.0 0.0 0
M  V30 18 C 1.732 -1.5 0.0 0
M  V30 19 C 0.0 -0.5 0.0 0
M  V30 20 C -0.866 0.0 0.0 0
M  V30 21 C 0.0 -1.4999 0.0 0
M  V30 22 C -0.866 1.0 0.0 0
M  V30 23 C -1.732 -0.4999 0.0 0
M  V30 24 C -0.866 -1.9999 0.0 0
M  V30 25 C 0.0 1.4999 0.0 0
M  V30 26 C -1.732 1.5 0.0 0
M  V30 27 C -1.732 -1.4999 0.0 0
M  V30 28 C 0.0 2.4999 0.0 0
M  V30 29 C -1.732 2.5 0.0 0
M  V30 30 C -2.598 -1.9999 0.0 0
M  V30 31 N -0.866 3.0 0.0 0
M  V30 32 C -2.598 -2.9999 0.0 0
M  V30 END ATOM
M  V30 BEGIN BOND
M  V30 1 2 1 2
M  V30 2 1 2 3
M  V30 3 1 2 4
M  V30 4 1 4 5
M  V30 5 1 5 6
M  V30 6 2 6 7
M  V30 7 1 6 8
M  V30 8 1 7 9
M  V30 9 1 7 10
M  V30 10 2 8 11
M  V30 11 2 9 12
M  V30 12 1 12 13
M  V30 13 1 13 14
M  V30 14 1 14 15
M  V30 15 1 15 16
M  V30 16 1 16 17
M  V30 17 1 16 18 CFG=1
M  V30 18 1 17 19
M  V30 19 2 19 20
M  V30 20 1 19 21
M  V30 21 1 20 22
M  V30 22 1 20 23
M  V30 23 2 21 24
M  V30 24 2 22 25
M  V30 25 1 22 26
M  V30 26 2 23 27
M  V30 27 1 25 28
M  V30 28 2 26 29
M  V30 29 1 27 30
M  V30 30 2 28 31
M  V30 31 1 30 32
M  V30 32 1 11 12
M  V30 33 1 24 27
M  V30 34 1 29 31
M  V30 END BOND
M  V30 BEGIN COLLECTION
M  V30 MDLV30/STEABS ATOMS=(1 16)
M  V30 END COLLECTION
M  V30 END CTAB
M  END
>  <Molecule ChEMBL ID>
CHEMBL391283

>  <Smiles>
CCc1ccc(O[C@H](C)CCOc2ccc(CCC(=O)O)c(C)c2)c(-c2ccncc2)c1

>  <IC50_nM>
520

>  <Assay Description>
Displacement of [3H]2-methyl-2-(4-{3-[porpyl-(5-pyridin-2yl-thiophene-2-sulfonyl)-amino]-propyl}-phenoxy)-propionic acid from human PPARgamma

$$$$
CHEMBL371778
Actelion Java MolfileCreator 2.0

  0  0  0  0  0  0              0 V3000
M  V30 BEGIN CTAB
M  V30 COUNTS 30 32 0 0 0
M  V30 BEGIN ATOM
M  V30 1 Cl 4.3228 1.2125 0.0 0
M  V30 2 C 4.3301 0.0 0.0 0
M  V30 3 C 3.4641 -0.5 0.0 0
M  V30 4 C 5.1961 -0.4999 0.0 0
M  V30 5 O 2.598 0.0 0.0 0
M  V30 6 C 3.4641 -1.5 0.0 0
M  V30 7 C 5.1961 -1.4999 0.0 0
M  V30 8 C 2.598 1.0 0.0 0 CFG=1
M  V30 9 C 4.3301 -1.9999 0.0 0
M  V30 10 C 2.598 -2.0 0.0 0
M  V30 11 N 5.9392 -2.1691 0.0 0
M  V30 12 C 3.4641 1.5 0.0 0
M  V30 13 C 1.732 1.5 0.0 0
M  V30 14 O 4.538 -2.9781 0.0 0
M  V30 15 C 1.732 -1.5 0.0 0
M  V30 16 C 5.5325 -3.0826 0.0 0
M  V30 17 C 6.9174 -1.9612 0.0 0
M  V30 18 C 3.4641 2.4999 0.0 0
M  V30 19 C 4.5771 1.0014 0.0 0
M  V30 20 O 0.866 0.9999 0.0 0
M  V30 21 O 1.732 2.4999 0.0 0
M  V30 22 C 0.866 -2.0 0.0 0
M  V30 23 O 6.0325 -3.9487 0.0 0
M  V30 24 C 7.2264 -1.0101 0.0 0
M  V30 25 C 4.3301 2.9999 0.0 0
M  V30 26 C 5.1961 1.4999 0.0 0
M  V30 27 C 5.1961 2.5 0.0 0
M  V30 28 C 6.0621 2.9999 0.0 0
M  V30 29 C 6.0621 4.0 0.0 0
M  V30 30 C 6.9282 2.5 0.0 0
M  V30 END ATOM
M  V30 BEGIN BOND
M  V30 1 1 1 2
M  V30 2 2 2 3
M  V30 3 1 2 4
M  V30 4 1 3 5
M  V30 5 1 3 6
M  V30 6 2 4 7
M  V30 7 1 8 5 CFG=3
M  V30 8 2 6 9
M  V30 9 1 6 10
M  V30 10 1 7 11
M  V30 11 1 8 12
M  V30 12 1 8 13
M  V30 13 1 9 14
M  V30 14 1 10 15
M  V30 15 1 11 16
M  V30 16 1 11 17
M  V30 17 2 12 18
M  V30 18 1 12 19
M  V30 19 2 13 20
M  V30 20 1 13 21
M  V30 21 1 15 22
M  V30 22 2 16 23
M  V30 23 1 17 24
M  V30 24 1 18 25
M  V30 25 2 19 26
M  V30 26 2 25 27
M  V30 27 1 27 28
M  V30 28 1 28 29
M  V30 29 1 28 30
M  V30 30 1 7 9
M  V30 31 1 14 16
M  V30 32 1 26 27
M  V30 END BOND
M  V30 BEGIN COLLECTION
M  V30 MDLV30/STEABS ATOMS=(1 8)
M  V30 END COLLECTION
M  V30 END CTAB
M  END
>  <Molecule ChEMBL ID>
CHEMBL371778

>  <Smiles>
CCCc1c(O[C@H](C(=O)O)c2ccc(C(C)C)cc2)c(Cl)cc2c1oc(=O)n2CC

>  <IC50_nM>
520

>  <Assay Description>
In vitro binding affinity for human PPAR gamma

$$$$
CHEMBL3398457
Actelion Java MolfileCreator 2.0

  0  0  0  0  0  0              0 V3000
M  V30 BEGIN CTAB
M  V30 COUNTS 40 44 0 0 0
M  V30 BEGIN ATOM
M  V30 1 O 10.7781 -0.6816 0.0 0
M  V30 2 C 10.3714 0.2318 0.0 0
M  V30 3 O 10.9592 1.0408 0.0 0
M  V30 4 N 9.3769 0.3364 0.0 0
M  V30 5 C 10.5524 1.9544 0.0 0
M  V30 6 C 8.8769 1.2024 0.0 0
M  V30 7 C 8.7077 -0.4067 0.0 0
M  V30 8 C 11.1402 2.7634 0.0 0
M  V30 9 C 9.5579 2.0589 0.0 0
M  V30 10 C 7.8987 0.9945 0.0 0 CFG=1
M  V30 11 C 7.7942 0.0 0.0 0 CFG=1
M  V30 12 C 10.7335 3.677 0.0 0
M  V30 13 C 9.1512 2.9725 0.0 0
M  V30 14 C 7.1556 1.6636 0.0 0
M  V30 15 C 6.9282 -0.5 0.0 0
M  V30 16 C 9.739 3.7815 0.0 0
M  V30 17 O 7.3635 2.6418 0.0 0
M  V30 18 O 6.2045 1.3546 0.0 0
M  V30 19 C 6.0621 0.0 0.0 0
M  V30 20 C 5.1961 -0.5 0.0 0
M  V30 21 C 4.3301 0.0 0.0 0
M  V30 22 C 5.1961 -1.4999 0.0 0
M  V30 23 C 3.4641 -0.5 0.0 0
M  V30 24 C 4.3301 -1.9999 0.0 0
M  V30 25 O 2.598 0.0 0.0 0
M  V30 26 C 3.4641 -1.4999 0.0 0
M  V30 27 C 1.732 -0.5 0.0 0
M  V30 28 C 0.866 0.0 0.0 0
M  V30 29 C 0.0 -0.5 0.0 0
M  V30 30 N -0.9135 -0.0932 0.0 0
M  V30 31 C -0.1045 -1.4945 0.0 0
M  V30 32 C -1.5826 -0.8364 0.0 0
M  V30 33 O -1.0826 -1.7024 0.0 0
M  V30 34 C 0.6386 -2.1636 0.0 0
M  V30 35 C -2.5771 -0.7318 0.0 0
M  V30 36 C -2.9839 0.1816 0.0 0
M  V30 37 C -3.1649 -1.5408 0.0 0
M  V30 38 C -3.9784 0.2861 0.0 0
M  V30 39 C -4.1595 -1.4363 0.0 0
M  V30 40 C -4.5662 -0.5228 0.0 0
M  V30 END ATOM
M  V30 BEGIN BOND
M  V30 1 2 1 2
M  V30 2 1 2 3
M  V30 3 1 2 4
M  V30 4 1 3 5
M  V30 5 1 4 6
M  V30 6 1 4 7
M  V30 7 2 5 8
M  V30 8 1 5 9
M  V30 9 1 6 10
M  V30 10 1 7 11
M  V30 11 1 8 12
M  V30 12 2 9 13
M  V30 13 1 10 14 CFG=1
M  V30 14 1 11 15 CFG=3
M  V30 15 2 12 16
M  V30 16 2 14 17
M  V30 17 1 14 18
M  V30 18 1 15 19
M  V30 19 1 19 20
M  V30 20 2 20 21
M  V30 21 1 20 22
M  V30 22 1 21 23
M  V30 23 2 22 24
M  V30 24 1 23 25
M  V30 25 2 23 26
M  V30 26 1 25 27
M  V30 27 1 27 28
M  V30 28 1 28 29
M  V30 29 1 29 30
M  V30 30 2 29 31
M  V30 31 2 30 32
M  V30 32 1 31 33
M  V30 33 1 31 34
M  V30 34 1 32 35
M  V30 35 2 35 36
M  V30 36 1 35 37
M  V30 37 1 36 38
M  V30 38 2 37 39
M  V30 39 2 38 40
M  V30 40 1 10 11
M  V30 41 1 13 16
M  V30 42 1 24 26
M  V30 43 1 32 33
M  V30 44 1 39 40
M  V30 END BOND
M  V30 BEGIN COLLECTION
M  V30 MDLV30/STEABS ATOMS=(2 10 11)
M  V30 END COLLECTION
M  V30 END CTAB
M  END
>  <Molecule ChEMBL ID>
CHEMBL3398457

>  <Smiles>
Cc1oc(-c2ccccc2)nc1CCOc1cccc(CC[C@H]2CN(C(=O)Oc3ccccc3)C[C@@H]2C(=O)O)c1

>  <IC50_nM>
520

>  <Assay Description>
Binding affinity to PPARgamma (unknown origin) using fluorescein-tagged dual PPARalpha/gamma activator by homogeneous fluorescence polarization binding assay

$$$$
CHEMBL148639
Actelion Java MolfileCreator 2.0

  0  0  0  0  0  0              0 V3000
M  V30 BEGIN CTAB
M  V30 COUNTS 34 36 0 0 0
M  V30 BEGIN ATOM
M  V30 1 O 7.4302 -3.9239 0.0 0
M  V30 2 C 6.8201 -2.5536 0.0 0
M  V30 3 N 7.5701 -1.2546 0.0 0
M  V30 4 N 5.3529 -2.2417 0.0 0
M  V30 5 N 6.5664 -0.1398 0.0 0
M  V30 6 C 9.0619 -1.0978 0.0 0
M  V30 7 C 5.1961 -0.75 0.0 0
M  V30 8 C 4.2382 -3.2454 0.0 0
M  V30 9 C 9.672 0.2724 0.0 0
M  V30 10 C 3.8971 0.0 0.0 0
M  V30 11 C 11.1638 0.4292 0.0 0
M  V30 12 C 8.7903 1.486 0.0 0
M  V30 13 C 2.598 -0.75 0.0 0
M  V30 14 C 11.7739 1.7996 0.0 0
M  V30 15 C 9.4004 2.8563 0.0 0
M  V30 16 C 1.299 0.0 0.0 0
M  V30 17 C 10.8922 3.0131 0.0 0
M  V30 18 C 0.0 -0.75 0.0 0
M  V30 19 C 11.5023 4.3834 0.0 0
M  V30 20 C -1.299 0.0 0.0 0
M  V30 21 C 0.0 -2.25 0.0 0
M  V30 22 C 10.132 4.9935 0.0 0
M  V30 23 C 12.1124 5.7537 0.0 0
M  V30 24 C 12.8727 3.7733 0.0 0
M  V30 25 C -2.598 -0.75 0.0 0
M  V30 26 C -1.299 -3.0 0.0 0
M  V30 27 C -2.598 -2.25 0.0 0
M  V30 28 O -3.8971 -3.0 0.0 0
M  V30 29 C -3.8971 -4.5 0.0 0
M  V30 30 C -5.1961 -5.25 0.0 0
M  V30 31 C -3.1471 -5.799 0.0 0
M  V30 32 C -2.3971 -4.4999 0.0 0
M  V30 33 O -6.4951 -4.5 0.0 0
M  V30 34 O -5.1961 -6.75 0.0 0
M  V30 END ATOM
M  V30 BEGIN BOND
M  V30 1 2 1 2
M  V30 2 1 2 3
M  V30 3 1 2 4
M  V30 4 1 3 5
M  V30 5 1 3 6
M  V30 6 1 4 7
M  V30 7 1 4 8
M  V30 8 1 6 9
M  V30 9 1 7 10
M  V30 10 2 9 11
M  V30 11 1 9 12
M  V30 12 1 10 13
M  V30 13 1 11 14
M  V30 14 2 12 15
M  V30 15 1 13 16
M  V30 16 2 14 17
M  V30 17 1 16 18
M  V30 18 1 17 19
M  V30 19 2 18 20
M  V30 20 1 18 21
M  V30 21 1 19 22
M  V30 22 1 19 23
M  V30 23 1 19 24
M  V30 24 1 20 25
M  V30 25 2 21 26
M  V30 26 2 25 27
M  V30 27 1 27 28
M  V30 28 1 28 29
M  V30 29 1 29 30
M  V30 30 1 29 31
M  V30 31 1 29 32
M  V30 32 2 30 33
M  V30 33 1 30 34
M  V30 34 2 5 7
M  V30 35 1 15 17
M  V30 36 1 26 27
M  V30 END BOND
M  V30 END CTAB
M  END
>  <Molecule ChEMBL ID>
CHEMBL148639

>  <Smiles>
Cn1c(CCCc2ccc(OC(C)(C)C(=O)O)cc2)nn(Cc2ccc(C(C)(C)C)cc2)c1=O

>  <IC50_nM>
520

>  <Assay Description>
Inhibitory activity of compound against the binding of human Peroxisome proliferator activated receptor gamma was determined

$$$$
CHEMBL148639
Actelion Java MolfileCreator 2.0

  0  0  0  0  0  0              0 V3000
M  V30 BEGIN CTAB
M  V30 COUNTS 34 36 0 0 0
M  V30 BEGIN ATOM
M  V30 1 O 7.4302 -3.9239 0.0 0
M  V30 2 C 6.8201 -2.5536 0.0 0
M  V30 3 N 7.5701 -1.2546 0.0 0
M  V30 4 N 5.3529 -2.2417 0.0 0
M  V30 5 N 6.5664 -0.1398 0.0 0
M  V30 6 C 9.0619 -1.0978 0.0 0
M  V30 7 C 5.1961 -0.75 0.0 0
M  V30 8 C 4.2382 -3.2454 0.0 0
M  V30 9 C 9.672 0.2724 0.0 0
M  V30 10 C 3.8971 0.0 0.0 0
M  V30 11 C 11.1638 0.4292 0.0 0
M  V30 12 C 8.7903 1.486 0.0 0
M  V30 13 C 2.598 -0.75 0.0 0
M  V30 14 C 11.7739 1.7996 0.0 0
M  V30 15 C 9.4004 2.8563 0.0 0
M  V30 16 C 1.299 0.0 0.0 0
M  V30 17 C 10.8922 3.0131 0.0 0
M  V30 18 C 0.0 -0.75 0.0 0
M  V30 19 C 11.5023 4.3834 0.0 0
M  V30 20 C -1.299 0.0 0.0 0
M  V30 21 C 0.0 -2.25 0.0 0
M  V30 22 C 10.132 4.9935 0.0 0
M  V30 23 C 12.1124 5.7537 0.0 0
M  V30 24 C 12.8727 3.7733 0.0 0
M  V30 25 C -2.598 -0.75 0.0 0
M  V30 26 C -1.299 -3.0 0.0 0
M  V30 27 C -2.598 -2.25 0.0 0
M  V30 28 O -3.8971 -3.0 0.0 0
M  V30 29 C -3.8971 -4.5 0.0 0
M  V30 30 C -5.1961 -5.25 0.0 0
M  V30 31 C -3.1471 -5.799 0.0 0
M  V30 32 C -2.3971 -4.4999 0.0 0
M  V30 33 O -6.4951 -4.5 0.0 0
M  V30 34 O -5.1961 -6.75 0.0 0
M  V30 END ATOM
M  V30 BEGIN BOND
M  V30 1 2 1 2
M  V30 2 1 2 3
M  V30 3 1 2 4
M  V30 4 1 3 5
M  V30 5 1 3 6
M  V30 6 1 4 7
M  V30 7 1 4 8
M  V30 8 1 6 9
M  V30 9 1 7 10
M  V30 10 2 9 11
M  V30 11 1 9 12
M  V30 12 1 10 13
M  V30 13 1 11 14
M  V30 14 2 12 15
M  V30 15 1 13 16
M  V30 16 2 14 17
M  V30 17 1 16 18
M  V30 18 1 17 19
M  V30 19 2 18 20
M  V30 20 1 18 21
M  V30 21 1 19 22
M  V30 22 1 19 23
M  V30 23 1 19 24
M  V30 24 1 20 25
M  V30 25 2 21 26
M  V30 26 2 25 27
M  V30 27 1 27 28
M  V30 28 1 28 29
M  V30 29 1 29 30
M  V30 30 1 29 31
M  V30 31 1 29 32
M  V30 32 2 30 33
M  V30 33 1 30 34
M  V30 34 2 5 7
M  V30 35 1 15 17
M  V30 36 1 26 27
M  V30 END BOND
M  V30 END CTAB
M  END
>  <Molecule ChEMBL ID>
CHEMBL148639

>  <Smiles>
Cn1c(CCCc2ccc(OC(C)(C)C(=O)O)cc2)nn(Cc2ccc(C(C)(C)C)cc2)c1=O

>  <IC50_nM>
520

>  <Assay Description>
Agonist activity at PPARgamma

$$$$
CHEMBL2031858
Actelion Java MolfileCreator 2.0

  0  0  0  0  0  0              0 V3000
M  V30 BEGIN CTAB
M  V30 COUNTS 30 31 0 0 0
M  V30 BEGIN ATOM
M  V30 1 F 12.4903 -2.1339 0.0 0
M  V30 2 C 12.9903 -2.9999 0.0 0
M  V30 3 F 13.8564 -2.4999 0.0 0
M  V30 4 F 13.4903 -3.866 0.0 0
M  V30 5 C 12.1243 -3.4999 0.0 0
M  V30 6 C 11.2583 -2.9999 0.0 0
M  V30 7 C 12.1243 -4.5 0.0 0
M  V30 8 C 10.3923 -3.5 0.0 0
M  V30 9 C 11.2583 -5.0 0.0 0
M  V30 10 C 10.3923 -4.5 0.0 0
M  V30 11 C 9.5262 -3.0 0.0 0
M  V30 12 C 9.5262 -2.0 0.0 0
M  V30 13 C 8.6602 -1.5 0.0 0
M  V30 14 C 8.6602 -0.5 0.0 0
M  V30 15 C 7.7942 -2.0 0.0 0
M  V30 16 C 7.7942 0.0 0.0 0
M  V30 17 C 6.9282 -1.5 0.0 0
M  V30 18 O 7.7942 0.9999 0.0 0
M  V30 19 C 6.9282 -0.5 0.0 0
M  V30 20 O 6.0621 -1.9999 0.0 0
M  V30 21 C 6.0621 0.0 0.0 0
M  V30 22 C 5.1961 -0.5 0.0 0
M  V30 23 C 4.3301 0.0 0.0 0
M  V30 24 C 3.4641 -0.5 0.0 0
M  V30 25 C 4.3301 1.0 0.0 0
M  V30 26 C 2.598 0.0 0.0 0
M  V30 27 C 1.732 -0.5 0.0 0
M  V30 28 C 0.866 0.0 0.0 0
M  V30 29 C 0.866 1.0 0.0 0
M  V30 30 C 0.0 -0.5 0.0 0
M  V30 END ATOM
M  V30 BEGIN BOND
M  V30 1 1 1 2
M  V30 2 1 2 3
M  V30 3 1 2 4
M  V30 4 1 2 5
M  V30 5 2 5 6
M  V30 6 1 5 7
M  V30 7 1 6 8
M  V30 8 2 7 9
M  V30 9 2 8 10
M  V30 10 1 8 11
M  V30 11 2 11 12
M  V30 12 1 12 13
M  V30 13 2 13 14
M  V30 14 1 13 15
M  V30 15 1 14 16
M  V30 16 2 15 17
M  V30 17 1 16 18
M  V30 18 2 16 19
M  V30 19 1 17 20
M  V30 20 1 19 21
M  V30 21 1 21 22
M  V30 22 2 22 23
M  V30 23 1 23 24
M  V30 24 1 23 25
M  V30 25 1 24 26
M  V30 26 1 26 27
M  V30 27 2 27 28
M  V30 28 1 28 29
M  V30 29 1 28 30
M  V30 30 1 9 10
M  V30 31 1 17 19
M  V30 END BOND
M  V30 END CTAB
M  END
>  <Molecule ChEMBL ID>
CHEMBL2031858

>  <Smiles>
CC(C)=CCC/C(C)=C/Cc1c(O)cc(/C=C/c2cccc(C(F)(F)F)c2)cc1O

>  <IC50_nM>
530

>  <Assay Description>
Binding affinity to GST-tagged human PPARgamma by TR-FRET analysis

$$$$
CHEMBL3585577
Actelion Java MolfileCreator 2.0

  0  0  0  0  0  0              0 V3000
M  V30 BEGIN CTAB
M  V30 COUNTS 37 41 0 0 0
M  V30 BEGIN ATOM
M  V30 1 O 11.8592 -3.5669 0.0 0
M  V30 2 C 10.8811 -3.7748 0.0 0
M  V30 3 O 10.212 -3.0316 0.0 0
M  V30 4 C 10.5721 -4.7258 0.0 0
M  V30 5 C 9.5939 -4.9337 0.0 0
M  V30 6 C 11.2412 -5.469 0.0 0
M  V30 7 C 8.9248 -4.1906 0.0 0
M  V30 8 C 9.2849 -5.8848 0.0 0
M  V30 9 C 10.9322 -6.42 0.0 0
M  V30 10 C 9.2338 -3.2395 0.0 0
M  V30 11 C 7.9466 -4.3985 0.0 0
M  V30 12 C 9.954 -6.6279 0.0 0
M  V30 13 C 8.5647 -2.4964 0.0 0
M  V30 14 C 7.2775 -3.6554 0.0 0
M  V30 15 C 7.5865 -2.7043 0.0 0
M  V30 16 C 6.9174 -1.9612 0.0 0
M  V30 17 N 5.9392 -2.1691 0.0 0
M  V30 18 C 5.1961 -1.4999 0.0 0
M  V30 19 C 5.5325 -3.0826 0.0 0
M  V30 20 C 4.3301 -1.9999 0.0 0
M  V30 21 C 5.1961 -0.4999 0.0 0
M  V30 22 C 4.538 -2.9781 0.0 0
M  V30 23 C 6.0325 -3.9487 0.0 0
M  V30 24 C 3.4641 -1.5 0.0 0
M  V30 25 C 4.3301 0.0 0.0 0
M  V30 26 C 3.8689 -3.7212 0.0 0
M  V30 27 C 3.4641 -0.5 0.0 0
M  V30 28 C 2.598 0.0 0.0 0
M  V30 29 O 2.598 1.0 0.0 0
M  V30 30 N 1.732 -0.5 0.0 0
M  V30 31 C 0.866 0.0 0.0 0
M  V30 32 C 0.0 -0.5 0.0 0
M  V30 33 C -0.866 0.0 0.0 0
M  V30 34 C 0.0 -1.4999 0.0 0
M  V30 35 N -1.732 -0.4999 0.0 0
M  V30 36 C -0.866 -1.9999 0.0 0
M  V30 37 C -1.732 -1.4999 0.0 0
M  V30 END ATOM
M  V30 BEGIN BOND
M  V30 1 2 1 2
M  V30 2 1 2 3
M  V30 3 1 2 4
M  V30 4 2 4 5
M  V30 5 1 4 6
M  V30 6 1 5 7
M  V30 7 1 5 8
M  V30 8 2 6 9
M  V30 9 2 7 10
M  V30 10 1 7 11
M  V30 11 2 8 12
M  V30 12 1 10 13
M  V30 13 2 11 14
M  V30 14 2 13 15
M  V30 15 1 15 16
M  V30 16 1 16 17
M  V30 17 1 17 18
M  V30 18 1 17 19
M  V30 19 2 18 20
M  V30 20 1 18 21
M  V30 21 2 19 22
M  V30 22 1 19 23
M  V30 23 1 20 24
M  V30 24 2 21 25
M  V30 25 1 22 26
M  V30 26 2 24 27
M  V30 27 1 27 28
M  V30 28 2 28 29
M  V30 29 1 28 30
M  V30 30 1 30 31
M  V30 31 1 31 32
M  V30 32 2 32 33
M  V30 33 1 32 34
M  V30 34 1 33 35
M  V30 35 2 34 36
M  V30 36 2 35 37
M  V30 37 1 9 12
M  V30 38 1 14 15
M  V30 39 1 20 22
M  V30 40 1 25 27
M  V30 41 1 36 37
M  V30 END BOND
M  V30 END CTAB
M  END
>  <Molecule ChEMBL ID>
CHEMBL3585577

>  <Smiles>
Cc1c(C)n(Cc2ccc(-c3ccccc3C(=O)O)cc2)c2ccc(C(=O)NCc3cccnc3)cc12

>  <IC50_nM>
536

>  <Assay Description>
Displacement of fluormone PPAR green tracer ligand from recombinant GST-tagged PPARgamma ligand binding domain (unknown origin) incubated for 4 hrs by competitive fluorescence polarization binding assay

$$$$
CHEMBL3699350
Actelion Java MolfileCreator 2.0

  0  0  0  0  0  0              0 V3000
M  V30 BEGIN CTAB
M  V30 COUNTS 45 50 0 0 0
M  V30 BEGIN ATOM
M  V30 1 O 3.4641 -0.5 0.0 0
M  V30 2 C 2.598 0.0 0.0 0
M  V30 3 O 1.732 -0.5 0.0 0
M  V30 4 N 2.598 1.0 0.0 0
M  V30 5 C 0.866 0.0 0.0 0
M  V30 6 C 3.407 1.5877 0.0 0
M  V30 7 C 1.789 1.5877 0.0 0
M  V30 8 C 0.0 -0.5 0.0 0
M  V30 9 C 3.098 2.5388 0.0 0 CFG=2
M  V30 10 C 2.098 2.5388 0.0 0
M  V30 11 C -0.866 0.0 0.0 0
M  V30 12 C 0.0 -1.4999 0.0 0
M  V30 13 N 3.6858 3.3478 0.0 0
M  V30 14 C -1.732 -0.4999 0.0 0
M  V30 15 C -0.866 -1.9999 0.0 0
M  V30 16 C 4.6803 3.2433 0.0 0
M  V30 17 C -1.732 -1.4999 0.0 0
M  V30 18 O 5.0871 2.3297 0.0 0
M  V30 19 C 5.2681 4.0523 0.0 0
M  V30 20 C 4.8614 4.9658 0.0 0
M  V30 21 C 6.2626 3.9478 0.0 0
M  V30 22 C 5.4492 5.7749 0.0 0
M  V30 23 C 6.8504 4.7568 0.0 0
M  V30 24 C 6.4437 5.6703 0.0 0
M  V30 25 C 5.2413 6.753 0.0 0
M  V30 26 N 6.8504 6.5839 0.0 0
M  V30 27 C 6.1073 7.253 0.0 0
M  V30 28 C 4.3277 7.1597 0.0 0
M  V30 29 C 7.8286 6.7918 0.0 0
M  V30 30 C 6.2118 8.2475 0.0 0
M  V30 31 C 8.1376 7.7428 0.0 0
M  V30 32 C 9.1157 7.9508 0.0 0
M  V30 33 C 7.4685 8.486 0.0 0
M  V30 34 C 9.4248 8.9018 0.0 0
M  V30 35 C 7.7775 9.437 0.0 0
M  V30 36 C 8.7556 9.645 0.0 0
M  V30 37 C 9.0646 10.596 0.0 0
M  V30 38 C 10.0428 10.8039 0.0 0
M  V30 39 C 8.3955 11.3392 0.0 0
M  V30 40 C 10.7119 10.0608 0.0 0
M  V30 41 C 10.3518 11.755 0.0 0
M  V30 42 C 8.7045 12.2902 0.0 0
M  V30 43 O 10.4029 9.1097 0.0 0
M  V30 44 O 11.6901 10.2687 0.0 0
M  V30 45 C 9.6827 12.4981 0.0 0
M  V30 END ATOM
M  V30 BEGIN BOND
M  V30 1 2 1 2
M  V30 2 1 2 3
M  V30 3 1 2 4
M  V30 4 1 3 5
M  V30 5 1 4 6
M  V30 6 1 4 7
M  V30 7 1 5 8
M  V30 8 1 6 9
M  V30 9 1 7 10
M  V30 10 2 8 11
M  V30 11 1 8 12
M  V30 12 1 9 13 CFG=3
M  V30 13 1 11 14
M  V30 14 2 12 15
M  V30 15 1 13 16
M  V30 16 2 14 17
M  V30 17 2 16 18
M  V30 18 1 16 19
M  V30 19 2 19 20
M  V30 20 1 19 21
M  V30 21 1 20 22
M  V30 22 2 21 23
M  V30 23 2 22 24
M  V30 24 1 22 25
M  V30 25 1 24 26
M  V30 26 2 25 27
M  V30 27 1 25 28
M  V30 28 1 26 29
M  V30 29 1 27 30
M  V30 30 1 29 31
M  V30 31 2 31 32
M  V30 32 1 31 33
M  V30 33 1 32 34
M  V30 34 2 33 35
M  V30 35 2 34 36
M  V30 36 1 36 37
M  V30 37 2 37 38
M  V30 38 1 37 39
M  V30 39 1 38 40
M  V30 40 1 38 41
M  V30 41 2 39 42
M  V30 42 2 40 43
M  V30 43 1 40 44
M  V30 44 2 41 45
M  V30 45 1 9 10
M  V30 46 1 15 17
M  V30 47 1 23 24
M  V30 48 1 26 27
M  V30 49 1 35 36
M  V30 50 1 42 45
M  V30 END BOND
M  V30 BEGIN COLLECTION
M  V30 MDLV30/STEABS ATOMS=(1 9)
M  V30 END COLLECTION
M  V30 END CTAB
M  END
>  <Molecule ChEMBL ID>
CHEMBL3699350

>  <Smiles>
Cc1c(C)n(Cc2ccc(-c3ccccc3C(=O)O)cc2)c2ccc(C(=O)N[C@H]3CCN(C(=O)OCc4ccccc4)C3)cc12

>  <IC50_nM>
536

>  <Assay Description>
Lanthascreen Competitive Binding Assay: The assay was performed according to manufacturer protocol. A mixture of nM GST-PPARG-LBD, 5 nM Tb-GST-antibody, 5 nM Fluormone Pan-PPAR Green, and serial dilutions of the experimental compound, beginning at 10 ׬M downwards, was added to wells of black 384-well low-volume plates (Greiner) to a total volume of 18 ׬L. All dilutions were made in TR-FRET assay buffer C. DMSO at 2% final concentration was used as a no-ligand control. Experiment was performed in triplicate, and incubated for 2 hours in the dark prior to assay read in Perkin Elmer ViewLux ultra HTS microplate reader. FRET signal was measured by excitation at 340 nm and emission at 520 nm for fluorescein and 490 nm for terbium. Fold change over DMSO was calculated using GraphPad Prism Software (La Jolla, Calif.) by calculating 520 nm/490 nm ratio. Graphs were plotted as fold change of FRET signal for compound treatment over DMSO-only control.

$$$$
CHEMBL374657
Actelion Java MolfileCreator 2.0

  0  0  0  0  0  0              0 V3000
M  V30 BEGIN CTAB
M  V30 COUNTS 37 40 0 0 0
M  V30 BEGIN ATOM
M  V30 1 S 3.8971 0.0 0.0 0
M  V30 2 O 4.6471 1.299 0.0 0
M  V30 3 O 3.1471 1.299 0.0 0
M  V30 4 N 2.598 -0.75 0.0 0
M  V30 5 C 5.1961 -0.75 0.0 0
M  V30 6 C 1.299 0.0 0.0 0
M  V30 7 C 5.1961 -2.25 0.0 0
M  V30 8 C 6.4951 0.0 0.0 0
M  V30 9 O 1.299 1.5 0.0 0
M  V30 10 C 0.0 -0.75 0.0 0
M  V30 11 C 6.4951 -3.0 0.0 0
M  V30 12 C 7.7942 -0.75 0.0 0
M  V30 13 N -1.3703 -0.1398 0.0 0
M  V30 14 C -0.1567 -2.2417 0.0 0
M  V30 15 C 7.7942 -2.25 0.0 0
M  V30 16 C 6.4951 -4.5 0.0 0
M  V30 17 C -2.374 -1.2546 0.0 0
M  V30 18 C -1.6821 1.3273 0.0 0
M  V30 19 C -1.624 -2.5536 0.0 0
M  V30 20 F 7.9951 -4.5 0.0 0
M  V30 21 F 6.4951 -6.0 0.0 0
M  V30 22 F 4.9951 -4.5 0.0 0
M  V30 23 C -3.874 -1.2546 0.0 0
M  V30 24 C -3.1087 1.7908 0.0 0
M  V30 25 C -2.374 -3.8526 0.0 0
M  V30 26 C -4.624 -2.5536 0.0 0
M  V30 27 C -3.4206 3.258 0.0 0
M  V30 28 C -4.2234 0.7871 0.0 0
M  V30 29 C -3.874 -3.8526 0.0 0
M  V30 30 C -4.8472 3.7216 0.0 0
M  V30 31 C -5.65 1.2506 0.0 0
M  V30 32 O -4.624 -5.1517 0.0 0
M  V30 33 C -5.9619 2.7179 0.0 0
M  V30 34 C -5.159 5.1888 0.0 0
M  V30 35 F -6.6263 4.8769 0.0 0
M  V30 36 F -5.4709 6.656 0.0 0
M  V30 37 F -3.6918 5.5006 0.0 0
M  V30 END ATOM
M  V30 BEGIN BOND
M  V30 1 2 1 2
M  V30 2 2 1 3
M  V30 3 1 1 4
M  V30 4 1 1 5
M  V30 5 1 4 6
M  V30 6 2 5 7
M  V30 7 1 5 8
M  V30 8 2 6 9
M  V30 9 1 6 10
M  V30 10 1 7 11
M  V30 11 2 8 12
M  V30 12 1 10 13
M  V30 13 2 10 14
M  V30 14 2 11 15
M  V30 15 1 11 16
M  V30 16 1 13 17
M  V30 17 1 13 18
M  V30 18 1 14 19
M  V30 19 1 16 20
M  V30 20 1 16 21
M  V30 21 1 16 22
M  V30 22 1 17 23
M  V30 23 1 18 24
M  V30 24 1 19 25
M  V30 25 2 23 26
M  V30 26 2 24 27
M  V30 27 1 24 28
M  V30 28 2 25 29
M  V30 29 1 27 30
M  V30 30 2 28 31
M  V30 31 1 29 32
M  V30 32 2 30 33
M  V30 33 1 30 34
M  V30 34 1 34 35
M  V30 35 1 34 36
M  V30 36 1 34 37
M  V30 37 1 12 15
M  V30 38 2 17 19
M  V30 39 1 26 29
M  V30 40 1 31 33
M  V30 END BOND
M  V30 END CTAB
M  END
>  <Molecule ChEMBL ID>
CHEMBL374657

>  <Smiles>
O=C(NS(=O)(=O)c1cccc(C(F)(F)F)c1)c1cc2cc(O)ccc2n1Cc1cccc(C(F)(F)F)c1

>  <IC50_nM>
540

>  <Assay Description>
Displacement of Fluormone from PPAR gamma

$$$$
CHEMBL1783060
Actelion Java MolfileCreator 2.0

  0  0  0  0  0  0              0 V3000
M  V30 BEGIN CTAB
M  V30 COUNTS 35 38 0 0 0
M  V30 BEGIN ATOM
M  V30 1 F 15.0394 -5.799 0.0 0
M  V30 2 C 14.2894 -4.5 0.0 0
M  V30 3 F 15.7894 -4.4999 0.0 0
M  V30 4 C 14.2894 -3.0 0.0 0
M  V30 5 C 12.9903 -5.25 0.0 0
M  V30 6 C 12.9903 -2.25 0.0 0
M  V30 7 C 11.6913 -4.5 0.0 0
M  V30 8 C 11.6913 -3.0 0.0 0
M  V30 9 C 10.3923 -2.25 0.0 0
M  V30 10 C 10.3923 -0.75 0.0 0
M  V30 11 C 9.0932 -3.0 0.0 0
M  V30 12 C 9.0932 0.0 0.0 0
M  V30 13 C 7.7942 -2.25 0.0 0
M  V30 14 C 7.7942 -0.75 0.0 0
M  V30 15 C 9.0932 1.5 0.0 0
M  V30 16 O 6.4951 0.0 0.0 0
M  V30 17 C 10.3923 2.25 0.0 0
M  V30 18 C 5.1961 -0.75 0.0 0
M  V30 19 C 10.3923 3.75 0.0 0
M  V30 20 C 3.8971 0.0 0.0 0
M  V30 21 C 2.598 -0.75 0.0 0
M  V30 22 O 1.299 0.0 0.0 0
M  V30 23 C 0.0 -0.75 0.0 0
M  V30 24 C -1.299 0.0 0.0 0
M  V30 25 C 0.0 -2.25 0.0 0
M  V30 26 C -2.598 -0.75 0.0 0
M  V30 27 C -1.299 -3.0 0.0 0
M  V30 28 C -2.598 -2.25 0.0 0
M  V30 29 C -3.8971 0.0 0.0 0 CFG=2
M  V30 30 O -4.0539 1.4917 0.0 0
M  V30 31 C -5.2674 -0.6101 0.0 0
M  V30 32 C -5.5211 1.8036 0.0 0
M  V30 33 O -5.5793 -2.0773 0.0 0
M  V30 34 N -6.2711 0.5046 0.0 0
M  V30 35 O -6.1312 3.1739 0.0 0
M  V30 END ATOM
M  V30 BEGIN BOND
M  V30 1 1 1 2
M  V30 2 1 2 3
M  V30 3 1 2 4
M  V30 4 1 2 5
M  V30 5 1 4 6
M  V30 6 1 5 7
M  V30 7 1 6 8
M  V30 8 1 8 9
M  V30 9 2 9 10
M  V30 10 1 9 11
M  V30 11 1 10 12
M  V30 12 2 11 13
M  V30 13 2 12 14
M  V30 14 1 12 15
M  V30 15 1 14 16
M  V30 16 1 15 17
M  V30 17 1 16 18
M  V30 18 1 17 19
M  V30 19 1 18 20
M  V30 20 1 20 21
M  V30 21 1 21 22
M  V30 22 1 22 23
M  V30 23 2 23 24
M  V30 24 1 23 25
M  V30 25 1 24 26
M  V30 26 2 25 27
M  V30 27 2 26 28
M  V30 28 1 29 26 CFG=1
M  V30 29 1 29 30
M  V30 30 1 29 31
M  V30 31 1 30 32
M  V30 32 2 31 33
M  V30 33 1 31 34
M  V30 34 2 32 35
M  V30 35 1 7 8
M  V30 36 1 13 14
M  V30 37 1 27 28
M  V30 38 1 32 34
M  V30 END BOND
M  V30 BEGIN COLLECTION
M  V30 MDLV30/STEABS ATOMS=(1 29)
M  V30 END COLLECTION
M  V30 END CTAB
M  END
>  <Molecule ChEMBL ID>
CHEMBL1783060

>  <Smiles>
CCCc1cc(C2CCC(F)(F)CC2)ccc1OCCCOc1cccc([C@@H]2OC(=O)NC2=O)c1

>  <IC50_nM>
540

>  <Assay Description>
Displacement of radio-labeled full agonist from PPARgamma receptor

$$$$
CHEMBL396694
Actelion Java MolfileCreator 2.0

  0  0  0  0  0  0              0 V3000
M  V30 BEGIN CTAB
M  V30 COUNTS 37 41 0 0 0
M  V30 BEGIN ATOM
M  V30 1 O 0.0 -4.4999 0.0 0
M  V30 2 C 0.0 -3.5 0.0 0
M  V30 3 O -0.866 -2.9999 0.0 0
M  V30 4 C 0.866 -2.9999 0.0 0
M  V30 5 N 0.866 -1.9999 0.0 0
M  V30 6 C 1.732 -1.5 0.0 0
M  V30 7 C 0.0 -1.5 0.0 0
M  V30 8 C 2.598 -1.9999 0.0 0
M  V30 9 C 0.0 -0.5 0.0 0
M  V30 10 C 2.598 -2.9999 0.0 0
M  V30 11 C 3.4641 -1.4999 0.0 0
M  V30 12 N -0.809 0.0877 0.0 0
M  V30 13 C 0.809 0.0877 0.0 0
M  V30 14 C 3.4641 -3.4999 0.0 0
M  V30 15 C 4.3301 -1.9999 0.0 0
M  V30 16 C -0.5 1.0388 0.0 0
M  V30 17 C 0.4999 1.0388 0.0 0
M  V30 18 O 3.4641 -4.4999 0.0 0
M  V30 19 C 4.3301 -3.0 0.0 0
M  V30 20 C -1.0 1.9048 0.0 0
M  V30 21 C 0.9999 1.9048 0.0 0
M  V30 22 C 4.3301 -4.9999 0.0 0
M  V30 23 C -0.5 2.7708 0.0 0
M  V30 24 C 0.4999 2.7708 0.0 0
M  V30 25 C 4.3301 -5.9999 0.0 0
M  V30 26 C 5.1961 -6.4999 0.0 0
M  V30 27 N 5.3006 -7.4945 0.0 0
M  V30 28 C 6.1096 -6.0932 0.0 0
M  V30 29 C 6.2788 -7.7024 0.0 0
M  V30 30 O 6.7788 -6.8364 0.0 0
M  V30 31 C 6.3176 -5.1151 0.0 0
M  V30 32 C 6.6855 -8.6159 0.0 0
M  V30 33 C 6.0977 -9.4249 0.0 0
M  V30 34 C 7.68 -8.7205 0.0 0
M  V30 35 C 6.5045 -10.3385 0.0 0
M  V30 36 C 8.0868 -9.634 0.0 0
M  V30 37 C 7.499 -10.443 0.0 0
M  V30 END ATOM
M  V30 BEGIN BOND
M  V30 1 2 1 2
M  V30 2 1 2 3
M  V30 3 1 2 4
M  V30 4 1 4 5
M  V30 5 1 5 6
M  V30 6 1 5 7
M  V30 7 1 6 8
M  V30 8 1 7 9
M  V30 9 2 8 10
M  V30 10 1 8 11
M  V30 11 1 9 12
M  V30 12 2 9 13
M  V30 13 1 10 14
M  V30 14 2 11 15
M  V30 15 1 12 16
M  V30 16 1 13 17
M  V30 17 1 14 18
M  V30 18 2 14 19
M  V30 19 1 16 20
M  V30 20 1 17 21
M  V30 21 1 18 22
M  V30 22 2 20 23
M  V30 23 2 21 24
M  V30 24 1 22 25
M  V30 25 1 25 26
M  V30 26 1 26 27
M  V30 27 2 26 28
M  V30 28 2 27 29
M  V30 29 1 28 30
M  V30 30 1 28 31
M  V30 31 1 29 32
M  V30 32 2 32 33
M  V30 33 1 32 34
M  V30 34 1 33 35
M  V30 35 2 34 36
M  V30 36 2 35 37
M  V30 37 1 15 19
M  V30 38 2 16 17
M  V30 39 1 23 24
M  V30 40 1 29 30
M  V30 41 1 36 37
M  V30 END BOND
M  V30 END CTAB
M  END
>  <Molecule ChEMBL ID>
CHEMBL396694

>  <Smiles>
Cc1oc(-c2ccccc2)nc1CCOc1cccc(CN(CC(=O)O)Cc2cc3ccccc3[nH]2)c1

>  <IC50_nM>
540

>  <Assay Description>
Displacement of fluorescein labeled ligand from PPARgamma receptor by fluorescence polarization assay

$$$$
CHEMBL332018
Actelion Java MolfileCreator 2.0

  0  0  0  0  0  0              0 V3000
M  V30 BEGIN CTAB
M  V30 COUNTS 35 38 0 0 0
M  V30 BEGIN ATOM
M  V30 1 F 15.0394 -5.799 0.0 0
M  V30 2 C 14.2894 -4.5 0.0 0
M  V30 3 F 15.7894 -4.4999 0.0 0
M  V30 4 C 14.2894 -3.0 0.0 0
M  V30 5 C 12.9903 -5.25 0.0 0
M  V30 6 C 12.9903 -2.25 0.0 0
M  V30 7 C 11.6913 -4.5 0.0 0
M  V30 8 C 11.6913 -3.0 0.0 0
M  V30 9 C 10.3923 -2.25 0.0 0
M  V30 10 C 10.3923 -0.75 0.0 0
M  V30 11 C 9.0932 -3.0 0.0 0
M  V30 12 C 9.0932 0.0 0.0 0
M  V30 13 C 7.7942 -2.25 0.0 0
M  V30 14 C 7.7942 -0.75 0.0 0
M  V30 15 C 9.0932 1.5 0.0 0
M  V30 16 O 6.4951 0.0 0.0 0
M  V30 17 C 10.3923 2.25 0.0 0
M  V30 18 C 5.1961 -0.75 0.0 0
M  V30 19 C 10.3923 3.75 0.0 0
M  V30 20 C 3.8971 0.0 0.0 0
M  V30 21 C 2.598 -0.75 0.0 0
M  V30 22 O 1.299 0.0 0.0 0
M  V30 23 C 0.0 -0.75 0.0 0
M  V30 24 C -1.299 0.0 0.0 0
M  V30 25 C 0.0 -2.25 0.0 0
M  V30 26 C -2.598 -0.75 0.0 0
M  V30 27 C -1.299 -3.0 0.0 0
M  V30 28 C -2.598 -2.25 0.0 0
M  V30 29 C -3.8971 0.0 0.0 0 CFG=1
M  V30 30 O -4.0539 1.4917 0.0 0
M  V30 31 C -5.2674 -0.6101 0.0 0
M  V30 32 C -5.5211 1.8036 0.0 0
M  V30 33 O -5.5793 -2.0773 0.0 0
M  V30 34 N -6.2711 0.5046 0.0 0
M  V30 35 O -6.1312 3.1739 0.0 0
M  V30 END ATOM
M  V30 BEGIN BOND
M  V30 1 1 1 2
M  V30 2 1 2 3
M  V30 3 1 2 4
M  V30 4 1 2 5
M  V30 5 1 4 6
M  V30 6 1 5 7
M  V30 7 1 6 8
M  V30 8 1 8 9
M  V30 9 2 9 10
M  V30 10 1 9 11
M  V30 11 1 10 12
M  V30 12 2 11 13
M  V30 13 2 12 14
M  V30 14 1 12 15
M  V30 15 1 14 16
M  V30 16 1 15 17
M  V30 17 1 16 18
M  V30 18 1 17 19
M  V30 19 1 18 20
M  V30 20 1 20 21
M  V30 21 1 21 22
M  V30 22 1 22 23
M  V30 23 2 23 24
M  V30 24 1 23 25
M  V30 25 1 24 26
M  V30 26 2 25 27
M  V30 27 2 26 28
M  V30 28 1 29 26 CFG=3
M  V30 29 1 29 30
M  V30 30 1 29 31
M  V30 31 1 30 32
M  V30 32 2 31 33
M  V30 33 1 31 34
M  V30 34 2 32 35
M  V30 35 1 7 8
M  V30 36 1 13 14
M  V30 37 1 27 28
M  V30 38 1 32 34
M  V30 END BOND
M  V30 BEGIN COLLECTION
M  V30 MDLV30/STERAC1 ATOMS=(1 29)
M  V30 END COLLECTION
M  V30 END CTAB
M  END
>  <Molecule ChEMBL ID>
CHEMBL332018

>  <Smiles>
CCCc1cc(C2CCC(F)(F)CC2)ccc1OCCCOc1cccc(C2OC(=O)NC2=O)c1

>  <IC50_nM>
540

>  <Assay Description>
In vitro binding affinity against human peroxisome proliferator activated receptor gamma

$$$$
CHEMBL2031953
Actelion Java MolfileCreator 2.0

  0  0  0  0  0  0              0 V3000
M  V30 BEGIN CTAB
M  V30 COUNTS 27 28 0 0 0
M  V30 BEGIN ATOM
M  V30 1 Cl 19.4855 -7.5 0.0 0
M  V30 2 C 18.1865 -6.75 0.0 0
M  V30 3 C 18.1865 -5.2499 0.0 0
M  V30 4 C 16.8874 -7.5 0.0 0
M  V30 5 C 16.8874 -4.5 0.0 0
M  V30 6 C 15.5884 -6.75 0.0 0
M  V30 7 C 15.5884 -5.25 0.0 0
M  V30 8 C 14.2894 -4.5 0.0 0
M  V30 9 C 14.2894 -3.0 0.0 0
M  V30 10 C 12.9903 -2.25 0.0 0
M  V30 11 C 12.9903 -0.75 0.0 0
M  V30 12 C 11.6913 -3.0 0.0 0
M  V30 13 C 11.6913 0.0 0.0 0
M  V30 14 C 10.3923 -2.25 0.0 0
M  V30 15 O 11.6913 1.4999 0.0 0
M  V30 16 C 10.3923 -0.75 0.0 0
M  V30 17 O 9.0932 -2.9999 0.0 0
M  V30 18 C 9.0932 0.0 0.0 0
M  V30 19 C 7.7942 -0.75 0.0 0
M  V30 20 C 6.4951 0.0 0.0 0
M  V30 21 C 5.1961 -0.75 0.0 0
M  V30 22 C 6.4951 1.5 0.0 0
M  V30 23 C 3.8971 0.0 0.0 0
M  V30 24 C 2.598 -0.75 0.0 0
M  V30 25 C 1.299 0.0 0.0 0
M  V30 26 C 1.299 1.5 0.0 0
M  V30 27 C 0.0 -0.75 0.0 0
M  V30 END ATOM
M  V30 BEGIN BOND
M  V30 1 1 1 2
M  V30 2 2 2 3
M  V30 3 1 2 4
M  V30 4 1 3 5
M  V30 5 2 4 6
M  V30 6 2 5 7
M  V30 7 1 7 8
M  V30 8 2 8 9
M  V30 9 1 9 10
M  V30 10 2 10 11
M  V30 11 1 10 12
M  V30 12 1 11 13
M  V30 13 2 12 14
M  V30 14 1 13 15
M  V30 15 2 13 16
M  V30 16 1 14 17
M  V30 17 1 16 18
M  V30 18 1 18 19
M  V30 19 2 19 20
M  V30 20 1 20 21
M  V30 21 1 20 22
M  V30 22 1 21 23
M  V30 23 1 23 24
M  V30 24 2 24 25
M  V30 25 1 25 26
M  V30 26 1 25 27
M  V30 27 1 6 7
M  V30 28 1 14 16
M  V30 END BOND
M  V30 END CTAB
M  END
>  <Molecule ChEMBL ID>
CHEMBL2031953

>  <Smiles>
CC(C)=CCC/C(C)=C/Cc1c(O)cc(/C=C/c2ccc(Cl)cc2)cc1O

>  <IC50_nM>
540

>  <Assay Description>
Binding affinity to GST-tagged human PPARgamma by TR-FRET analysis

$$$$
CHEMBL25259
Actelion Java MolfileCreator 2.0

  0  0  0  0  0  0              0 V3000
M  V30 BEGIN CTAB
M  V30 COUNTS 34 37 0 0 0
M  V30 BEGIN ATOM
M  V30 1 O 10.3923 -6.75 0.0 0
M  V30 2 C 10.3923 -5.25 0.0 0
M  V30 3 O 11.6913 -4.5 0.0 0
M  V30 4 C 9.0932 -4.5 0.0 0
M  V30 5 O 9.0932 -3.0 0.0 0
M  V30 6 C 7.5933 -4.4999 0.0 0
M  V30 7 C 8.3433 -5.799 0.0 0
M  V30 8 C 7.7942 -2.25 0.0 0
M  V30 9 C 7.7942 -0.75 0.0 0
M  V30 10 C 6.4951 -3.0 0.0 0
M  V30 11 C 6.4951 0.0 0.0 0
M  V30 12 C 5.1961 -2.25 0.0 0
M  V30 13 C 5.1961 -0.75 0.0 0
M  V30 14 O 3.8971 0.0 0.0 0
M  V30 15 C 2.598 -0.75 0.0 0
M  V30 16 C 1.299 0.0 0.0 0
M  V30 17 C 0.0 -0.75 0.0 0
M  V30 18 N -1.3703 -0.1398 0.0 0
M  V30 19 C -0.1567 -2.2417 0.0 0
M  V30 20 C -2.374 -1.2546 0.0 0
M  V30 21 O -1.624 -2.5536 0.0 0
M  V30 22 C 0.9579 -3.2454 0.0 0
M  V30 23 C -3.8658 -1.0978 0.0 0
M  V30 24 C -4.4759 0.2724 0.0 0
M  V30 25 C -4.7474 -2.3113 0.0 0
M  V30 26 C -5.9676 0.4292 0.0 0
M  V30 27 C -6.2392 -2.1545 0.0 0
M  V30 28 C -6.8493 -0.7842 0.0 0
M  V30 29 C -8.3411 -0.6274 0.0 0
M  V30 30 C -8.9512 0.7428 0.0 0
M  V30 31 C -9.2228 -1.8409 0.0 0
M  V30 32 C -10.443 0.8996 0.0 0
M  V30 33 C -10.7146 -1.6841 0.0 0
M  V30 34 C -11.3247 -0.3138 0.0 0
M  V30 END ATOM
M  V30 BEGIN BOND
M  V30 1 2 1 2
M  V30 2 1 2 3
M  V30 3 1 2 4
M  V30 4 1 4 5
M  V30 5 1 4 6
M  V30 6 1 4 7
M  V30 7 1 5 8
M  V30 8 2 8 9
M  V30 9 1 8 10
M  V30 10 1 9 11
M  V30 11 2 10 12
M  V30 12 2 11 13
M  V30 13 1 13 14
M  V30 14 1 14 15
M  V30 15 1 15 16
M  V30 16 1 16 17
M  V30 17 1 17 18
M  V30 18 2 17 19
M  V30 19 2 18 20
M  V30 20 1 19 21
M  V30 21 1 19 22
M  V30 22 1 20 23
M  V30 23 2 23 24
M  V30 24 1 23 25
M  V30 25 1 24 26
M  V30 26 2 25 27
M  V30 27 2 26 28
M  V30 28 1 28 29
M  V30 29 2 29 30
M  V30 30 1 29 31
M  V30 31 1 30 32
M  V30 32 2 31 33
M  V30 33 2 32 34
M  V30 34 1 12 13
M  V30 35 1 20 21
M  V30 36 1 27 28
M  V30 37 1 33 34
M  V30 END BOND
M  V30 END CTAB
M  END
>  <Molecule ChEMBL ID>
CHEMBL25259

>  <Smiles>
Cc1oc(-c2ccc(-c3ccccc3)cc2)nc1CCOc1ccc(OC(C)(C)C(=O)O)cc1

>  <IC50_nM>
548

>  <Assay Description>
Binding affinity at human peroxidase proliferator activated receptor gamma (hPPARgamma)

$$$$
CHEMBL3678114
Actelion Java MolfileCreator 2.0

  0  0  0  0  0  0              0 V3000
M  V30 BEGIN CTAB
M  V30 COUNTS 38 41 0 0 0
M  V30 BEGIN ATOM
M  V30 1 O 11.0852 1.4815 0.0 0
M  V30 2 C 10.7761 0.5304 0.0 0
M  V30 3 N 11.4453 -0.2126 0.0 0
M  V30 4 C 9.798 0.3225 0.0 0
M  V30 5 C 11.1363 -1.1637 0.0 0 CFG=2
M  V30 6 C 9.489 -0.6284 0.0 0
M  V30 7 C 9.1289 1.0657 0.0 0
M  V30 8 C 11.8054 -1.9068 0.0 0
M  V30 9 C 10.1581 -1.3716 0.0 0
M  V30 10 C 8.5108 -0.8364 0.0 0
M  V30 11 C 8.1507 0.8577 0.0 0
M  V30 12 C 12.7835 -1.6989 0.0 0
M  V30 13 C 11.4964 -2.8579 0.0 0
M  V30 14 C 7.8417 -0.0932 0.0 0
M  V30 15 C 8.0108 -1.7024 0.0 0
M  V30 16 C 13.4527 -2.4421 0.0 0
M  V30 17 C 12.1655 -3.601 0.0 0
M  V30 18 N 6.9282 -0.5 0.0 0
M  V30 19 C 7.0327 -1.4945 0.0 0
M  V30 20 C 8.4176 -2.6159 0.0 0
M  V30 21 C 13.1436 -3.3931 0.0 0
M  V30 22 C 14.4308 -2.2341 0.0 0
M  V30 23 C 6.0621 0.0 0.0 0
M  V30 24 C 6.2895 -2.1636 0.0 0
M  V30 25 C 14.7398 -1.2831 0.0 0
M  V30 26 C 15.0999 -2.9773 0.0 0
M  V30 27 C 5.1961 -0.5 0.0 0
M  V30 28 C 4.3301 0.0 0.0 0
M  V30 29 C 5.1961 -1.4999 0.0 0
M  V30 30 C 3.4641 -0.5 0.0 0
M  V30 31 C 4.3301 -1.9999 0.0 0
M  V30 32 O 2.598 0.0 0.0 0
M  V30 33 C 3.4641 -1.4999 0.0 0
M  V30 34 C 1.732 -0.5 0.0 0 CFG=1
M  V30 35 C 0.866 0.0 0.0 0
M  V30 36 C 1.732 -1.5 0.0 0
M  V30 37 O 0.866 1.0 0.0 0
M  V30 38 O 0.0 -0.5 0.0 0
M  V30 END ATOM
M  V30 BEGIN BOND
M  V30 1 2 1 2
M  V30 2 1 2 3
M  V30 3 1 2 4
M  V30 4 1 3 5
M  V30 5 2 4 6
M  V30 6 1 4 7
M  V30 7 1 5 8
M  V30 8 1 5 9 CFG=3
M  V30 9 1 6 10
M  V30 10 2 7 11
M  V30 11 2 8 12
M  V30 12 1 8 13
M  V30 13 2 10 14
M  V30 14 1 10 15
M  V30 15 1 12 16
M  V30 16 2 13 17
M  V30 17 1 14 18
M  V30 18 2 15 19
M  V30 19 1 15 20
M  V30 20 2 16 21
M  V30 21 1 16 22
M  V30 22 1 18 23
M  V30 23 1 19 24
M  V30 24 1 22 25
M  V30 25 1 22 26
M  V30 26 1 23 27
M  V30 27 2 27 28
M  V30 28 1 27 29
M  V30 29 1 28 30
M  V30 30 2 29 31
M  V30 31 1 30 32
M  V30 32 2 30 33
M  V30 33 1 32 34
M  V30 34 1 34 35
M  V30 35 1 34 36 CFG=3
M  V30 36 2 35 37
M  V30 37 1 35 38
M  V30 38 1 11 14
M  V30 39 1 17 21
M  V30 40 1 18 19
M  V30 41 1 31 33
M  V30 END BOND
M  V30 BEGIN COLLECTION
M  V30 MDLV30/STEABS ATOMS=(2 5 34)
M  V30 END COLLECTION
M  V30 END CTAB
M  END
>  <Molecule ChEMBL ID>
CHEMBL3678114

>  <Smiles>
Cc1c(C)n(Cc2cccc(O[C@H](C)C(=O)O)c2)c2ccc(C(=O)N[C@@H](C)c3cccc(C(C)C)c3)cc12

>  <IC50_nM>
550

>  <Assay Description>
Lanthascreen Competitive Binding Assay: The assay was performed according to manufacturer protocol. A mixture of 5 nM GST-PPARG-LBD, 5 nM Tb-GST-antibody, 5 nM Fluormone Pan- PPAR Green, and serial dilutions of the experimental compound, beginning at 10 ׬� downwards, was added to wells of black 384-well low- volume plates (Greiner) to a total volume of 18 xL. All dilutions were made in TR-FRET assay buffer C. DMSO at 2% final concentration was used as a no-ligand control. Experiment was performed in triplicate, and incubated for 2 hours in the dark prior to assay read in Perkin Elmer ViewLux ultra HTS microplate reader. FRET signal was measured by excitation at 340 nm and emission at 520 nm for fluorescein and 490 nm for terbium.

$$$$
CHEMBL278590
Actelion Java MolfileCreator 2.0

  0  0  0  0  0  0              0 V3000
M  V30 BEGIN CTAB
M  V30 COUNTS 34 35 0 0 0
M  V30 BEGIN ATOM
M  V30 1 S 16.8875 -3.0 0.0 0
M  V30 2 C 15.5884 -2.25 0.0 0
M  V30 3 C 18.1865 -2.25 0.0 0
M  V30 4 C 15.5884 -0.75 0.0 0
M  V30 5 C 14.2894 -3.0 0.0 0
M  V30 6 C 19.4855 -3.0 0.0 0
M  V30 7 C 18.9365 -0.951 0.0 0
M  V30 8 C 17.4365 -0.951 0.0 0
M  V30 9 C 14.2894 0.0 0.0 0
M  V30 10 C 12.9903 -2.25 0.0 0
M  V30 11 O 19.4855 -4.5 0.0 0
M  V30 12 O 20.7846 -2.25 0.0 0
M  V30 13 C 12.9903 -0.75 0.0 0
M  V30 14 C 11.6913 0.0 0.0 0
M  V30 15 C 10.3923 -0.75 0.0 0
M  V30 16 N 9.0932 0.0 0.0 0
M  V30 17 C 9.0932 1.5 0.0 0
M  V30 18 C 7.7942 -0.75 0.0 0
M  V30 19 O 7.7942 2.25 0.0 0
M  V30 20 N 10.3923 2.25 0.0 0
M  V30 21 C 6.4951 0.0 0.0 0
M  V30 22 C 10.3923 3.75 0.0 0
M  V30 23 C 5.1961 -0.75 0.0 0
M  V30 24 C 11.6913 4.5 0.0 0
M  V30 25 C 9.0932 4.5 0.0 0
M  V30 26 C 3.8971 0.0 0.0 0
M  V30 27 F 12.9903 3.75 0.0 0
M  V30 28 C 11.6913 6.0 0.0 0
M  V30 29 C 9.0932 6.0 0.0 0
M  V30 30 C 2.598 -0.75 0.0 0
M  V30 31 C 10.3923 6.75 0.0 0
M  V30 32 C 1.299 0.0 0.0 0
M  V30 33 F 10.3923 8.25 0.0 0
M  V30 34 C 0.0 -0.75 0.0 0
M  V30 END ATOM
M  V30 BEGIN BOND
M  V30 1 1 1 2
M  V30 2 1 1 3
M  V30 3 2 2 4
M  V30 4 1 2 5
M  V30 5 1 3 6
M  V30 6 1 3 7
M  V30 7 1 3 8
M  V30 8 1 4 9
M  V30 9 2 5 10
M  V30 10 2 6 11
M  V30 11 1 6 12
M  V30 12 2 9 13
M  V30 13 1 13 14
M  V30 14 1 14 15
M  V30 15 1 15 16
M  V30 16 1 16 17
M  V30 17 1 16 18
M  V30 18 2 17 19
M  V30 19 1 17 20
M  V30 20 1 18 21
M  V30 21 1 20 22
M  V30 22 1 21 23
M  V30 23 2 22 24
M  V30 24 1 22 25
M  V30 25 1 23 26
M  V30 26 1 24 27
M  V30 27 1 24 28
M  V30 28 2 25 29
M  V30 29 1 26 30
M  V30 30 2 28 31
M  V30 31 1 30 32
M  V30 32 1 31 33
M  V30 33 1 32 34
M  V30 34 1 10 13
M  V30 35 1 29 31
M  V30 END BOND
M  V30 END CTAB
M  END
>  <Molecule ChEMBL ID>
CHEMBL278590

>  <Smiles>
CCCCCCCN(CCc1ccc(SC(C)(C)C(=O)O)cc1)C(=O)Nc1ccc(F)cc1F

>  <IC50_nM>
550

>  <Assay Description>
Inhibitory activity of compound against the binding of human Peroxisome proliferator activated receptor gamma was determined

$$$$
CHEMBL3695769
Actelion Java MolfileCreator 2.0

  0  0  0  0  0  0              0 V3000
M  V30 BEGIN CTAB
M  V30 COUNTS 41 45 0 0 0
M  V30 BEGIN ATOM
M  V30 1 S 6.0621 -1.9999 0.0 0
M  V30 2 O 5.5621 -2.866 0.0 0
M  V30 3 O 6.5621 -1.1339 0.0 0
M  V30 4 C 5.1961 -1.4999 0.0 0
M  V30 5 C 6.9282 -2.5 0.0 0
M  V30 6 C 5.1961 -0.5 0.0 0
M  V30 7 C 4.3301 -1.9999 0.0 0
M  V30 8 C 4.3301 0.0 0.0 0
M  V30 9 C 3.4641 -1.5 0.0 0
M  V30 10 C 3.4641 -0.5 0.0 0
M  V30 11 C 2.598 0.0 0.0 0
M  V30 12 N 1.732 -0.5 0.0 0
M  V30 13 C 0.866 0.0 0.0 0
M  V30 14 O 0.866 1.0 0.0 0
M  V30 15 C 0.0 -0.5 0.0 0
M  V30 16 C 0.0 -1.4999 0.0 0
M  V30 17 C -0.866 0.0 0.0 0
M  V30 18 C -0.866 -1.9999 0.0 0
M  V30 19 C -1.732 -0.4999 0.0 0
M  V30 20 C -1.732 -1.4999 0.0 0
M  V30 21 C -1.0739 -2.9781 0.0 0
M  V30 22 N -2.4751 -2.1691 0.0 0
M  V30 23 C -2.0684 -3.0826 0.0 0
M  V30 24 C -0.4048 -3.7212 0.0 0
M  V30 25 C -3.4533 -1.9612 0.0 0
M  V30 26 C -2.5684 -3.9487 0.0 0
M  V30 27 C -4.1224 -2.7043 0.0 0
M  V30 28 C -5.1006 -2.4964 0.0 0
M  V30 29 C -3.8134 -3.6554 0.0 0
M  V30 30 C -5.7697 -3.2395 0.0 0
M  V30 31 C -4.4825 -4.3985 0.0 0
M  V30 32 C -5.4607 -4.1906 0.0 0
M  V30 33 C -6.1298 -4.9337 0.0 0
M  V30 34 C -7.108 -4.7258 0.0 0
M  V30 35 C -5.8208 -5.8848 0.0 0
M  V30 36 C -7.417 -3.7748 0.0 0
M  V30 37 C -7.7771 -5.469 0.0 0
M  V30 38 C -6.4899 -6.6279 0.0 0
M  V30 39 O -6.7478 -3.0316 0.0 0
M  V30 40 O -8.3951 -3.5669 0.0 0
M  V30 41 C -7.4681 -6.42 0.0 0
M  V30 END ATOM
M  V30 BEGIN BOND
M  V30 1 2 1 2
M  V30 2 2 1 3
M  V30 3 1 1 4
M  V30 4 1 1 5
M  V30 5 2 4 6
M  V30 6 1 4 7
M  V30 7 1 6 8
M  V30 8 2 7 9
M  V30 9 2 8 10
M  V30 10 1 10 11
M  V30 11 1 11 12
M  V30 12 1 12 13
M  V30 13 2 13 14
M  V30 14 1 13 15
M  V30 15 2 15 16
M  V30 16 1 15 17
M  V30 17 1 16 18
M  V30 18 2 17 19
M  V30 19 2 18 20
M  V30 20 1 18 21
M  V30 21 1 20 22
M  V30 22 2 21 23
M  V30 23 1 21 24
M  V30 24 1 22 25
M  V30 25 1 23 26
M  V30 26 1 25 27
M  V30 27 2 27 28
M  V30 28 1 27 29
M  V30 29 1 28 30
M  V30 30 2 29 31
M  V30 31 2 30 32
M  V30 32 1 32 33
M  V30 33 2 33 34
M  V30 34 1 33 35
M  V30 35 1 34 36
M  V30 36 1 34 37
M  V30 37 2 35 38
M  V30 38 2 36 39
M  V30 39 1 36 40
M  V30 40 2 37 41
M  V30 41 1 9 10
M  V30 42 1 19 20
M  V30 43 1 22 23
M  V30 44 1 31 32
M  V30 45 1 38 41
M  V30 END BOND
M  V30 END CTAB
M  END
>  <Molecule ChEMBL ID>
CHEMBL3695769

>  <Smiles>
Cc1c(C)n(Cc2ccc(-c3ccccc3C(=O)O)cc2)c2ccc(C(=O)NCc3ccc(S(C)(=O)=O)cc3)cc12

>  <IC50_nM>
553

>  <Assay Description>
Lanthascreen Competitive Binding Assay: The assay was performed according to manufacturer protocol. A mixture of nM GST-PPARG-LBD, 5 nM Tb-GST-antibody, 5 nM Fluormone Pan-PPAR Green, and serial dilutions of the experimental compound, beginning at 10 ׬M downwards, was added to wells of black 384-well low-volume plates (Greiner) to a total volume of 18 ׬L. All dilutions were made in TR-FRET assay buffer C. DMSO at 2% final concentration was used as a no-ligand control. Experiment was performed in triplicate, and incubated for 2 hours in the dark prior to assay read in Perkin Elmer ViewLux ultra HTS microplate reader. FRET signal was measured by excitation at 340 nm and emission at 520 nm for fluorescein and 490 nm for terbium. Fold change over DMSO was calculated using GraphPad Prism Software (La Jolla, Calif.) by calculating 520 nm/490 nm ratio. Graphs were plotted as fold change of FRET signal for compound treatment over DMSO-only control.

$$$$
CHEMBL23670
Actelion Java MolfileCreator 2.0

  0  0  0  0  0  0              0 V3000
M  V30 BEGIN CTAB
M  V30 COUNTS 30 32 0 0 0
M  V30 BEGIN ATOM
M  V30 1 Cl 9.0932 1.5 0.0 0
M  V30 2 C 9.0932 0.0 0.0 0
M  V30 3 C 7.7942 -0.75 0.0 0
M  V30 4 C 10.3923 -0.7499 0.0 0
M  V30 5 S 6.4951 0.0 0.0 0
M  V30 6 C 7.7942 -2.25 0.0 0
M  V30 7 C 10.3923 -2.2499 0.0 0
M  V30 8 C 5.1961 -0.75 0.0 0
M  V30 9 C 9.0932 -2.9999 0.0 0
M  V30 10 C 11.6913 -2.9999 0.0 0
M  V30 11 C 3.8971 0.0 0.0 0
M  V30 12 C 11.6913 -4.4999 0.0 0
M  V30 13 C 2.598 -0.75 0.0 0
M  V30 14 O 10.3923 -5.2499 0.0 0
M  V30 15 O 12.9903 -5.2499 0.0 0
M  V30 16 O 1.299 0.0 0.0 0
M  V30 17 C 0.0 -0.75 0.0 0
M  V30 18 C -1.299 0.0 0.0 0
M  V30 19 C 0.0 -2.25 0.0 0
M  V30 20 C -2.598 -0.7499 0.0 0
M  V30 21 C -1.299 1.5 0.0 0
M  V30 22 C -1.299 -2.9999 0.0 0
M  V30 23 O -4.0246 -0.2864 0.0 0
M  V30 24 C -2.598 -2.2499 0.0 0
M  V30 25 C 0.0 2.25 0.0 0
M  V30 26 C -4.9063 -1.4999 0.0 0
M  V30 27 C -4.0246 -2.7135 0.0 0
M  V30 28 C 0.0 3.75 0.0 0
M  V30 29 C -4.4881 -4.1401 0.0 0
M  V30 30 C -3.4844 -5.2548 0.0 0
M  V30 END ATOM
M  V30 BEGIN BOND
M  V30 1 1 1 2
M  V30 2 2 2 3
M  V30 3 1 2 4
M  V30 4 1 3 5
M  V30 5 1 3 6
M  V30 6 2 4 7
M  V30 7 1 5 8
M  V30 8 2 6 9
M  V30 9 1 7 10
M  V30 10 1 8 11
M  V30 11 1 10 12
M  V30 12 1 11 13
M  V30 13 2 12 14
M  V30 14 1 12 15
M  V30 15 1 13 16
M  V30 16 1 16 17
M  V30 17 2 17 18
M  V30 18 1 17 19
M  V30 19 1 18 20
M  V30 20 1 18 21
M  V30 21 2 19 22
M  V30 22 1 20 23
M  V30 23 2 20 24
M  V30 24 1 21 25
M  V30 25 1 23 26
M  V30 26 1 24 27
M  V30 27 1 25 28
M  V30 28 1 27 29
M  V30 29 1 29 30
M  V30 30 1 7 9
M  V30 31 1 22 24
M  V30 32 2 26 27
M  V30 END BOND
M  V30 END CTAB
M  END
>  <Molecule ChEMBL ID>
CHEMBL23670

>  <Smiles>
CCCc1c(OCCCSc2ccc(CC(=O)O)cc2Cl)ccc2c(CC)coc12

>  <IC50_nM>
559.76

>  <Assay Description>
Agonist activity at PPARgamma

$$$$
CHEMBL23670
Actelion Java MolfileCreator 2.0

  0  0  0  0  0  0              0 V3000
M  V30 BEGIN CTAB
M  V30 COUNTS 30 32 0 0 0
M  V30 BEGIN ATOM
M  V30 1 Cl 9.0932 1.5 0.0 0
M  V30 2 C 9.0932 0.0 0.0 0
M  V30 3 C 7.7942 -0.75 0.0 0
M  V30 4 C 10.3923 -0.7499 0.0 0
M  V30 5 S 6.4951 0.0 0.0 0
M  V30 6 C 7.7942 -2.25 0.0 0
M  V30 7 C 10.3923 -2.2499 0.0 0
M  V30 8 C 5.1961 -0.75 0.0 0
M  V30 9 C 9.0932 -2.9999 0.0 0
M  V30 10 C 11.6913 -2.9999 0.0 0
M  V30 11 C 3.8971 0.0 0.0 0
M  V30 12 C 11.6913 -4.4999 0.0 0
M  V30 13 C 2.598 -0.75 0.0 0
M  V30 14 O 10.3923 -5.2499 0.0 0
M  V30 15 O 12.9903 -5.2499 0.0 0
M  V30 16 O 1.299 0.0 0.0 0
M  V30 17 C 0.0 -0.75 0.0 0
M  V30 18 C -1.299 0.0 0.0 0
M  V30 19 C 0.0 -2.25 0.0 0
M  V30 20 C -2.598 -0.7499 0.0 0
M  V30 21 C -1.299 1.5 0.0 0
M  V30 22 C -1.299 -2.9999 0.0 0
M  V30 23 O -4.0246 -0.2864 0.0 0
M  V30 24 C -2.598 -2.2499 0.0 0
M  V30 25 C 0.0 2.25 0.0 0
M  V30 26 C -4.9063 -1.4999 0.0 0
M  V30 27 C -4.0246 -2.7135 0.0 0
M  V30 28 C 0.0 3.75 0.0 0
M  V30 29 C -4.4881 -4.1401 0.0 0
M  V30 30 C -3.4844 -5.2548 0.0 0
M  V30 END ATOM
M  V30 BEGIN BOND
M  V30 1 1 1 2
M  V30 2 2 2 3
M  V30 3 1 2 4
M  V30 4 1 3 5
M  V30 5 1 3 6
M  V30 6 2 4 7
M  V30 7 1 5 8
M  V30 8 2 6 9
M  V30 9 1 7 10
M  V30 10 1 8 11
M  V30 11 1 10 12
M  V30 12 1 11 13
M  V30 13 2 12 14
M  V30 14 1 12 15
M  V30 15 1 13 16
M  V30 16 1 16 17
M  V30 17 2 17 18
M  V30 18 1 17 19
M  V30 19 1 18 20
M  V30 20 1 18 21
M  V30 21 2 19 22
M  V30 22 1 20 23
M  V30 23 2 20 24
M  V30 24 1 21 25
M  V30 25 1 23 26
M  V30 26 1 24 27
M  V30 27 1 25 28
M  V30 28 1 27 29
M  V30 29 1 29 30
M  V30 30 1 7 9
M  V30 31 1 22 24
M  V30 32 2 26 27
M  V30 END BOND
M  V30 END CTAB
M  END
>  <Molecule ChEMBL ID>
CHEMBL23670

>  <Smiles>
CCCc1c(OCCCSc2ccc(CC(=O)O)cc2Cl)ccc2c(CC)coc12

>  <IC50_nM>
560

>  <Assay Description>
Displacement of radio-labeled full agonist from PPARgamma receptor

$$$$
CHEMBL23670
Actelion Java MolfileCreator 2.0

  0  0  0  0  0  0              0 V3000
M  V30 BEGIN CTAB
M  V30 COUNTS 30 32 0 0 0
M  V30 BEGIN ATOM
M  V30 1 Cl 9.0932 1.5 0.0 0
M  V30 2 C 9.0932 0.0 0.0 0
M  V30 3 C 7.7942 -0.75 0.0 0
M  V30 4 C 10.3923 -0.7499 0.0 0
M  V30 5 S 6.4951 0.0 0.0 0
M  V30 6 C 7.7942 -2.25 0.0 0
M  V30 7 C 10.3923 -2.2499 0.0 0
M  V30 8 C 5.1961 -0.75 0.0 0
M  V30 9 C 9.0932 -2.9999 0.0 0
M  V30 10 C 11.6913 -2.9999 0.0 0
M  V30 11 C 3.8971 0.0 0.0 0
M  V30 12 C 11.6913 -4.4999 0.0 0
M  V30 13 C 2.598 -0.75 0.0 0
M  V30 14 O 10.3923 -5.2499 0.0 0
M  V30 15 O 12.9903 -5.2499 0.0 0
M  V30 16 O 1.299 0.0 0.0 0
M  V30 17 C 0.0 -0.75 0.0 0
M  V30 18 C -1.299 0.0 0.0 0
M  V30 19 C 0.0 -2.25 0.0 0
M  V30 20 C -2.598 -0.7499 0.0 0
M  V30 21 C -1.299 1.5 0.0 0
M  V30 22 C -1.299 -2.9999 0.0 0
M  V30 23 O -4.0246 -0.2864 0.0 0
M  V30 24 C -2.598 -2.2499 0.0 0
M  V30 25 C 0.0 2.25 0.0 0
M  V30 26 C -4.9063 -1.4999 0.0 0
M  V30 27 C -4.0246 -2.7135 0.0 0
M  V30 28 C 0.0 3.75 0.0 0
M  V30 29 C -4.4881 -4.1401 0.0 0
M  V30 30 C -3.4844 -5.2548 0.0 0
M  V30 END ATOM
M  V30 BEGIN BOND
M  V30 1 1 1 2
M  V30 2 2 2 3
M  V30 3 1 2 4
M  V30 4 1 3 5
M  V30 5 1 3 6
M  V30 6 2 4 7
M  V30 7 1 5 8
M  V30 8 2 6 9
M  V30 9 1 7 10
M  V30 10 1 8 11
M  V30 11 1 10 12
M  V30 12 1 11 13
M  V30 13 2 12 14
M  V30 14 1 12 15
M  V30 15 1 13 16
M  V30 16 1 16 17
M  V30 17 2 17 18
M  V30 18 1 17 19
M  V30 19 1 18 20
M  V30 20 1 18 21
M  V30 21 2 19 22
M  V30 22 1 20 23
M  V30 23 2 20 24
M  V30 24 1 21 25
M  V30 25 1 23 26
M  V30 26 1 24 27
M  V30 27 1 25 28
M  V30 28 1 27 29
M  V30 29 1 29 30
M  V30 30 1 7 9
M  V30 31 1 22 24
M  V30 32 2 26 27
M  V30 END BOND
M  V30 END CTAB
M  END
>  <Molecule ChEMBL ID>
CHEMBL23670

>  <Smiles>
CCCc1c(OCCCSc2ccc(CC(=O)O)cc2Cl)ccc2c(CC)coc12

>  <IC50_nM>
560

>  <Assay Description>
In vitro binding affinity for human PPAR gamma in SPA

$$$$
CHEMBL23670
Actelion Java MolfileCreator 2.0

  0  0  0  0  0  0              0 V3000
M  V30 BEGIN CTAB
M  V30 COUNTS 30 32 0 0 0
M  V30 BEGIN ATOM
M  V30 1 Cl 9.0932 1.5 0.0 0
M  V30 2 C 9.0932 0.0 0.0 0
M  V30 3 C 7.7942 -0.75 0.0 0
M  V30 4 C 10.3923 -0.7499 0.0 0
M  V30 5 S 6.4951 0.0 0.0 0
M  V30 6 C 7.7942 -2.25 0.0 0
M  V30 7 C 10.3923 -2.2499 0.0 0
M  V30 8 C 5.1961 -0.75 0.0 0
M  V30 9 C 9.0932 -2.9999 0.0 0
M  V30 10 C 11.6913 -2.9999 0.0 0
M  V30 11 C 3.8971 0.0 0.0 0
M  V30 12 C 11.6913 -4.4999 0.0 0
M  V30 13 C 2.598 -0.75 0.0 0
M  V30 14 O 10.3923 -5.2499 0.0 0
M  V30 15 O 12.9903 -5.2499 0.0 0
M  V30 16 O 1.299 0.0 0.0 0
M  V30 17 C 0.0 -0.75 0.0 0
M  V30 18 C -1.299 0.0 0.0 0
M  V30 19 C 0.0 -2.25 0.0 0
M  V30 20 C -2.598 -0.7499 0.0 0
M  V30 21 C -1.299 1.5 0.0 0
M  V30 22 C -1.299 -2.9999 0.0 0
M  V30 23 O -4.0246 -0.2864 0.0 0
M  V30 24 C -2.598 -2.2499 0.0 0
M  V30 25 C 0.0 2.25 0.0 0
M  V30 26 C -4.9063 -1.4999 0.0 0
M  V30 27 C -4.0246 -2.7135 0.0 0
M  V30 28 C 0.0 3.75 0.0 0
M  V30 29 C -4.4881 -4.1401 0.0 0
M  V30 30 C -3.4844 -5.2548 0.0 0
M  V30 END ATOM
M  V30 BEGIN BOND
M  V30 1 1 1 2
M  V30 2 2 2 3
M  V30 3 1 2 4
M  V30 4 1 3 5
M  V30 5 1 3 6
M  V30 6 2 4 7
M  V30 7 1 5 8
M  V30 8 2 6 9
M  V30 9 1 7 10
M  V30 10 1 8 11
M  V30 11 1 10 12
M  V30 12 1 11 13
M  V30 13 2 12 14
M  V30 14 1 12 15
M  V30 15 1 13 16
M  V30 16 1 16 17
M  V30 17 2 17 18
M  V30 18 1 17 19
M  V30 19 1 18 20
M  V30 20 1 18 21
M  V30 21 2 19 22
M  V30 22 1 20 23
M  V30 23 2 20 24
M  V30 24 1 21 25
M  V30 25 1 23 26
M  V30 26 1 24 27
M  V30 27 1 25 28
M  V30 28 1 27 29
M  V30 29 1 29 30
M  V30 30 1 7 9
M  V30 31 1 22 24
M  V30 32 2 26 27
M  V30 END BOND
M  V30 END CTAB
M  END
>  <Molecule ChEMBL ID>
CHEMBL23670

>  <Smiles>
CCCc1c(OCCCSc2ccc(CC(=O)O)cc2Cl)ccc2c(CC)coc12

>  <IC50_nM>
560

>  <Assay Description>
Agonist activity at PPARgamma

$$$$
CHEMBL3678103
Actelion Java MolfileCreator 2.0

  0  0  0  0  0  0              0 V3000
M  V30 BEGIN CTAB
M  V30 COUNTS 31 34 0 0 0
M  V30 BEGIN ATOM
M  V30 1 F 8.6605 0.7737 0.0 0
M  V30 2 C 8.9695 1.7248 0.0 0
M  V30 3 C 9.9476 1.9327 0.0 0
M  V30 4 C 8.3003 2.4679 0.0 0
M  V30 5 F 10.6168 1.1896 0.0 0
M  V30 6 C 10.2566 2.8838 0.0 0
M  V30 7 C 7.3222 2.26 0.0 0
M  V30 8 C 8.6094 3.419 0.0 0
M  V30 9 C 9.5875 3.6269 0.0 0
M  V30 10 O 6.6531 3.0032 0.0 0
M  V30 11 N 7.0132 1.309 0.0 0
M  V30 12 C 6.0621 0.9999 0.0 0
M  V30 13 C 7.601 0.5 0.0 0
M  V30 14 C 6.0621 0.0 0.0 0
M  V30 15 C 5.1961 1.4999 0.0 0
M  V30 16 C 7.0132 -0.309 0.0 0
M  V30 17 C 5.1961 -0.5 0.0 0
M  V30 18 C 4.3301 0.9999 0.0 0
M  V30 19 C 4.3301 0.0 0.0 0
M  V30 20 C 3.4641 -0.5 0.0 0
M  V30 21 O 3.4641 -1.5 0.0 0
M  V30 22 N 2.598 0.0 0.0 0
M  V30 23 C 1.732 -0.5 0.0 0 CFG=2
M  V30 24 C 1.732 -1.5 0.0 0
M  V30 25 C 0.866 0.0 0.0 0
M  V30 26 C 0.866 -1.9999 0.0 0
M  V30 27 C 2.598 -2.0 0.0 0
M  V30 28 C 0.0 -0.5 0.0 0
M  V30 29 C 0.866 -2.9999 0.0 0
M  V30 30 C 2.598 -3.0 0.0 0
M  V30 31 C 1.732 -3.5 0.0 0
M  V30 END ATOM
M  V30 BEGIN BOND
M  V30 1 1 1 2
M  V30 2 2 2 3
M  V30 3 1 2 4
M  V30 4 1 3 5
M  V30 5 1 3 6
M  V30 6 1 4 7
M  V30 7 2 4 8
M  V30 8 2 6 9
M  V30 9 2 7 10
M  V30 10 1 7 11
M  V30 11 1 11 12
M  V30 12 1 11 13
M  V30 13 2 12 14
M  V30 14 1 12 15
M  V30 15 2 13 16
M  V30 16 1 14 17
M  V30 17 2 15 18
M  V30 18 2 17 19
M  V30 19 1 19 20
M  V30 20 2 20 21
M  V30 21 1 20 22
M  V30 22 1 23 22 CFG=3
M  V30 23 1 23 24
M  V30 24 1 23 25
M  V30 25 2 24 26
M  V30 26 1 24 27
M  V30 27 1 25 28
M  V30 28 1 26 29
M  V30 29 2 27 30
M  V30 30 2 29 31
M  V30 31 1 8 9
M  V30 32 1 14 16
M  V30 33 1 18 19
M  V30 34 1 30 31
M  V30 END BOND
M  V30 BEGIN COLLECTION
M  V30 MDLV30/STERAC1 ATOMS=(1 23)
M  V30 END COLLECTION
M  V30 END CTAB
M  END
>  <Molecule ChEMBL ID>
CHEMBL3678103

>  <Smiles>
CCC(NC(=O)c1ccc2c(ccn2C(=O)c2cccc(F)c2F)c1)c1ccccc1

>  <IC50_nM>
563

>  <Assay Description>
Lanthascreen Competitive Binding Assay: The assay was performed according to manufacturer protocol. A mixture of 5 nM GST-PPARG-LBD, 5 nM Tb-GST-antibody, 5 nM Fluormone Pan- PPAR Green, and serial dilutions of the experimental compound, beginning at 10 ׬� downwards, was added to wells of black 384-well low- volume plates (Greiner) to a total volume of 18 xL. All dilutions were made in TR-FRET assay buffer C. DMSO at 2% final concentration was used as a no-ligand control. Experiment was performed in triplicate, and incubated for 2 hours in the dark prior to assay read in Perkin Elmer ViewLux ultra HTS microplate reader. FRET signal was measured by excitation at 340 nm and emission at 520 nm for fluorescein and 490 nm for terbium.

$$$$
CHEMBL13045
Actelion Java MolfileCreator 2.0

  0  0  0  0  0  0              0 V3000
M  V30 BEGIN CTAB
M  V30 COUNTS 26 30 0 0 0
M  V30 BEGIN ATOM
M  V30 1 O 6.27 3.9781 0.0 0
M  V30 2 C 6.0621 3.0 0.0 0
M  V30 3 C 7.2646 4.0826 0.0 0
M  V30 4 C 6.9282 2.4999 0.0 0
M  V30 5 C 5.1961 2.5 0.0 0
M  V30 6 O 7.6713 3.1691 0.0 0
M  V30 7 C 6.9282 1.4999 0.0 0
M  V30 8 C 5.1961 1.5 0.0 0
M  V30 9 C 6.0621 1.0 0.0 0
M  V30 10 C 4.3301 1.0 0.0 0
M  V30 11 C 6.0621 0.0 0.0 0
M  V30 12 N 3.4641 1.5 0.0 0 CHG=1
M  V30 13 C 4.3301 0.0 0.0 0
M  V30 14 C 5.1961 -0.4999 0.0 0
M  V30 15 C 2.598 1.0 0.0 0
M  V30 16 C 3.4641 2.5 0.0 0
M  V30 17 C 3.4641 -0.5 0.0 0
M  V30 18 C 2.598 0.0 0.0 0
M  V30 19 C 3.4641 -1.4999 0.0 0
M  V30 20 C 1.732 -0.5 0.0 0
M  V30 21 C 2.598 -1.9999 0.0 0
M  V30 22 O 0.866 0.0 0.0 0
M  V30 23 C 1.732 -1.5 0.0 0
M  V30 24 C 0.0 -0.5 0.0 0
M  V30 25 O 0.866 -2.0 0.0 0
M  V30 26 C 0.866 -3.0 0.0 0
M  V30 END ATOM
M  V30 BEGIN BOND
M  V30 1 1 1 2
M  V30 2 1 1 3
M  V30 3 1 2 4
M  V30 4 2 2 5
M  V30 5 1 3 6
M  V30 6 2 4 7
M  V30 7 1 5 8
M  V30 8 1 7 9
M  V30 9 2 8 10
M  V30 10 2 9 11
M  V30 11 1 10 12
M  V30 12 1 10 13
M  V30 13 1 11 14
M  V30 14 2 12 15
M  V30 15 1 12 16
M  V30 16 1 13 17
M  V30 17 1 15 18
M  V30 18 2 17 19
M  V30 19 2 18 20
M  V30 20 1 19 21
M  V30 21 1 20 22
M  V30 22 1 20 23
M  V30 23 1 22 24
M  V30 24 1 23 25
M  V30 25 1 25 26
M  V30 26 1 4 6
M  V30 27 1 8 9
M  V30 28 2 13 14
M  V30 29 1 17 18
M  V30 30 2 21 23
M  V30 END BOND
M  V30 END CTAB
M  END
>  <Molecule ChEMBL ID>
CHEMBL13045

>  <Smiles>
COc1ccc2c(c[n+](C)c3c4cc5c(cc4ccc23)OCO5)c1OC

>  <IC50_nM>
566

>  <Assay Description>
Binding affinity to human 6xHis-tagged PPARgamma ligand binding domain (206 to 477 residues) by TR-FRET assay

$$$$
CHEMBL13045
Actelion Java MolfileCreator 2.0

  0  0  0  0  0  0              0 V3000
M  V30 BEGIN CTAB
M  V30 COUNTS 26 30 0 0 0
M  V30 BEGIN ATOM
M  V30 1 O 6.27 3.9781 0.0 0
M  V30 2 C 6.0621 3.0 0.0 0
M  V30 3 C 7.2646 4.0826 0.0 0
M  V30 4 C 6.9282 2.4999 0.0 0
M  V30 5 C 5.1961 2.5 0.0 0
M  V30 6 O 7.6713 3.1691 0.0 0
M  V30 7 C 6.9282 1.4999 0.0 0
M  V30 8 C 5.1961 1.5 0.0 0
M  V30 9 C 6.0621 1.0 0.0 0
M  V30 10 C 4.3301 1.0 0.0 0
M  V30 11 C 6.0621 0.0 0.0 0
M  V30 12 N 3.4641 1.5 0.0 0 CHG=1
M  V30 13 C 4.3301 0.0 0.0 0
M  V30 14 C 5.1961 -0.4999 0.0 0
M  V30 15 C 2.598 1.0 0.0 0
M  V30 16 C 3.4641 2.5 0.0 0
M  V30 17 C 3.4641 -0.5 0.0 0
M  V30 18 C 2.598 0.0 0.0 0
M  V30 19 C 3.4641 -1.4999 0.0 0
M  V30 20 C 1.732 -0.5 0.0 0
M  V30 21 C 2.598 -1.9999 0.0 0
M  V30 22 O 0.866 0.0 0.0 0
M  V30 23 C 1.732 -1.5 0.0 0
M  V30 24 C 0.0 -0.5 0.0 0
M  V30 25 O 0.866 -2.0 0.0 0
M  V30 26 C 0.866 -3.0 0.0 0
M  V30 END ATOM
M  V30 BEGIN BOND
M  V30 1 1 1 2
M  V30 2 1 1 3
M  V30 3 1 2 4
M  V30 4 2 2 5
M  V30 5 1 3 6
M  V30 6 2 4 7
M  V30 7 1 5 8
M  V30 8 1 7 9
M  V30 9 2 8 10
M  V30 10 2 9 11
M  V30 11 1 10 12
M  V30 12 1 10 13
M  V30 13 1 11 14
M  V30 14 2 12 15
M  V30 15 1 12 16
M  V30 16 1 13 17
M  V30 17 1 15 18
M  V30 18 2 17 19
M  V30 19 2 18 20
M  V30 20 1 19 21
M  V30 21 1 20 22
M  V30 22 1 20 23
M  V30 23 1 22 24
M  V30 24 1 23 25
M  V30 25 1 25 26
M  V30 26 1 4 6
M  V30 27 1 8 9
M  V30 28 2 13 14
M  V30 29 1 17 18
M  V30 30 2 21 23
M  V30 END BOND
M  V30 END CTAB
M  END
>  <Molecule ChEMBL ID>
CHEMBL13045

>  <Smiles>
COc1ccc2c(c[n+](C)c3c4cc5c(cc4ccc23)OCO5)c1OC

>  <IC50_nM>
566

>  <Assay Description>
Agonist activity at PPARgamma (unknown origin)

$$$$
CHEMBL392063
Actelion Java MolfileCreator 2.0

  0  0  0  0  0  0              0 V3000
M  V30 BEGIN CTAB
M  V30 COUNTS 31 33 0 0 0
M  V30 BEGIN ATOM
M  V30 1 S 8.3432 3.8082 0.0 0
M  V30 2 C 7.8797 2.3816 0.0 0
M  V30 3 C 9.8432 3.8082 0.0 0
M  V30 4 C 9.0932 1.5 0.0 0
M  V30 5 C 10.3067 2.3816 0.0 0
M  V30 6 C 9.0932 0.0 0.0 0
M  V30 7 C 7.7942 -0.75 0.0 0
M  V30 8 C 10.3923 -0.7499 0.0 0
M  V30 9 O 6.4951 0.0 0.0 0
M  V30 10 C 7.7942 -2.25 0.0 0
M  V30 11 C 10.3923 -2.2499 0.0 0
M  V30 12 C 5.1961 -0.75 0.0 0 CFG=1
M  V30 13 C 9.0932 -2.9999 0.0 0
M  V30 14 C 11.6913 -2.9999 0.0 0
M  V30 15 C 3.8971 0.0 0.0 0
M  V30 16 C 5.1961 -2.25 0.0 0
M  V30 17 C 12.9903 -2.2499 0.0 0
M  V30 18 C 2.598 -0.75 0.0 0
M  V30 19 O 1.299 0.0 0.0 0
M  V30 20 C 0.0 -0.75 0.0 0
M  V30 21 C -1.299 0.0 0.0 0
M  V30 22 C 0.0 -2.25 0.0 0
M  V30 23 C -2.598 -0.7499 0.0 0
M  V30 24 C -1.299 -2.9999 0.0 0
M  V30 25 C -2.598 -2.2499 0.0 0
M  V30 26 C -3.8971 0.0 0.0 0
M  V30 27 C -3.8971 -2.9999 0.0 0
M  V30 28 C -3.8971 -4.4999 0.0 0
M  V30 29 C -5.1961 -5.2499 0.0 0
M  V30 30 O -6.4951 -4.4999 0.0 0
M  V30 31 O -5.1961 -6.7499 0.0 0
M  V30 END ATOM
M  V30 BEGIN BOND
M  V30 1 1 1 2
M  V30 2 1 1 3
M  V30 3 2 2 4
M  V30 4 2 3 5
M  V30 5 1 4 6
M  V30 6 2 6 7
M  V30 7 1 6 8
M  V30 8 1 7 9
M  V30 9 1 7 10
M  V30 10 2 8 11
M  V30 11 1 9 12
M  V30 12 2 10 13
M  V30 13 1 11 14
M  V30 14 1 12 15
M  V30 15 1 12 16 CFG=3
M  V30 16 1 14 17
M  V30 17 1 15 18
M  V30 18 1 18 19
M  V30 19 1 19 20
M  V30 20 2 20 21
M  V30 21 1 20 22
M  V30 22 1 21 23
M  V30 23 2 22 24
M  V30 24 2 23 25
M  V30 25 1 23 26
M  V30 26 1 25 27
M  V30 27 1 27 28
M  V30 28 1 28 29
M  V30 29 2 29 30
M  V30 30 1 29 31
M  V30 31 1 4 5
M  V30 32 1 11 13
M  V30 33 1 24 25
M  V30 END BOND
M  V30 BEGIN COLLECTION
M  V30 MDLV30/STEABS ATOMS=(1 12)
M  V30 END COLLECTION
M  V30 END CTAB
M  END
>  <Molecule ChEMBL ID>
CHEMBL392063

>  <Smiles>
CCc1ccc(O[C@H](C)CCOc2ccc(CCC(=O)O)c(C)c2)c(-c2ccsc2)c1

>  <IC50_nM>
567.54

>  <Assay Description>
Agonist activity at PPARgamma

$$$$
CHEMBL392063
Actelion Java MolfileCreator 2.0

  0  0  0  0  0  0              0 V3000
M  V30 BEGIN CTAB
M  V30 COUNTS 31 33 0 0 0
M  V30 BEGIN ATOM
M  V30 1 S 8.3432 3.8082 0.0 0
M  V30 2 C 7.8797 2.3816 0.0 0
M  V30 3 C 9.8432 3.8082 0.0 0
M  V30 4 C 9.0932 1.5 0.0 0
M  V30 5 C 10.3067 2.3816 0.0 0
M  V30 6 C 9.0932 0.0 0.0 0
M  V30 7 C 7.7942 -0.75 0.0 0
M  V30 8 C 10.3923 -0.7499 0.0 0
M  V30 9 O 6.4951 0.0 0.0 0
M  V30 10 C 7.7942 -2.25 0.0 0
M  V30 11 C 10.3923 -2.2499 0.0 0
M  V30 12 C 5.1961 -0.75 0.0 0 CFG=1
M  V30 13 C 9.0932 -2.9999 0.0 0
M  V30 14 C 11.6913 -2.9999 0.0 0
M  V30 15 C 3.8971 0.0 0.0 0
M  V30 16 C 5.1961 -2.25 0.0 0
M  V30 17 C 12.9903 -2.2499 0.0 0
M  V30 18 C 2.598 -0.75 0.0 0
M  V30 19 O 1.299 0.0 0.0 0
M  V30 20 C 0.0 -0.75 0.0 0
M  V30 21 C -1.299 0.0 0.0 0
M  V30 22 C 0.0 -2.25 0.0 0
M  V30 23 C -2.598 -0.7499 0.0 0
M  V30 24 C -1.299 -2.9999 0.0 0
M  V30 25 C -2.598 -2.2499 0.0 0
M  V30 26 C -3.8971 0.0 0.0 0
M  V30 27 C -3.8971 -2.9999 0.0 0
M  V30 28 C -3.8971 -4.4999 0.0 0
M  V30 29 C -5.1961 -5.2499 0.0 0
M  V30 30 O -6.4951 -4.4999 0.0 0
M  V30 31 O -5.1961 -6.7499 0.0 0
M  V30 END ATOM
M  V30 BEGIN BOND
M  V30 1 1 1 2
M  V30 2 1 1 3
M  V30 3 2 2 4
M  V30 4 2 3 5
M  V30 5 1 4 6
M  V30 6 2 6 7
M  V30 7 1 6 8
M  V30 8 1 7 9
M  V30 9 1 7 10
M  V30 10 2 8 11
M  V30 11 1 9 12
M  V30 12 2 10 13
M  V30 13 1 11 14
M  V30 14 1 12 15
M  V30 15 1 12 16 CFG=3
M  V30 16 1 14 17
M  V30 17 1 15 18
M  V30 18 1 18 19
M  V30 19 1 19 20
M  V30 20 2 20 21
M  V30 21 1 20 22
M  V30 22 1 21 23
M  V30 23 2 22 24
M  V30 24 2 23 25
M  V30 25 1 23 26
M  V30 26 1 25 27
M  V30 27 1 27 28
M  V30 28 1 28 29
M  V30 29 2 29 30
M  V30 30 1 29 31
M  V30 31 1 4 5
M  V30 32 1 11 13
M  V30 33 1 24 25
M  V30 END BOND
M  V30 BEGIN COLLECTION
M  V30 MDLV30/STEABS ATOMS=(1 12)
M  V30 END COLLECTION
M  V30 END CTAB
M  END
>  <Molecule ChEMBL ID>
CHEMBL392063

>  <Smiles>
CCc1ccc(O[C@H](C)CCOc2ccc(CCC(=O)O)c(C)c2)c(-c2ccsc2)c1

>  <IC50_nM>
568

>  <Assay Description>
Displacement of [3H]2-methyl-2-(4-{3-[porpyl-(5-pyridin-2yl-thiophene-2-sulfonyl)-amino]-propyl}-phenoxy)-propionic acid from human PPARgamma

$$$$
CHEMBL601861
Actelion Java MolfileCreator 2.0

  0  0  0  0  0  0              0 V3000
M  V30 BEGIN CTAB
M  V30 COUNTS 39 43 0 0 0
M  V30 BEGIN ATOM
M  V30 1 O 11.1837 5.7369 0.0 0
M  V30 2 C 10.8747 4.7859 0.0 0
M  V30 3 O 9.8965 4.578 0.0 0
M  V30 4 C 11.5438 4.0427 0.0 0
M  V30 5 C 11.2348 3.0917 0.0 0
M  V30 6 C 12.522 4.2506 0.0 0
M  V30 7 C 10.2566 2.8838 0.0 0
M  V30 8 C 11.9039 2.3485 0.0 0
M  V30 9 C 13.1911 3.5075 0.0 0
M  V30 10 C 9.5875 3.6269 0.0 0
M  V30 11 C 9.9476 1.9327 0.0 0
M  V30 12 C 12.8821 2.5564 0.0 0
M  V30 13 C 8.6094 3.419 0.0 0
M  V30 14 C 8.9695 1.7248 0.0 0
M  V30 15 C 8.3003 2.4679 0.0 0
M  V30 16 C 7.3222 2.26 0.0 0
M  V30 17 N 7.0132 1.309 0.0 0
M  V30 18 C 6.0621 0.9999 0.0 0
M  V30 19 C 7.601 0.5 0.0 0
M  V30 20 C 6.0621 0.0 0.0 0
M  V30 21 C 5.1961 1.4999 0.0 0
M  V30 22 C 7.0132 -0.309 0.0 0
M  V30 23 C 8.601 0.5 0.0 0
M  V30 24 C 5.1961 -0.5 0.0 0
M  V30 25 C 4.3301 0.9999 0.0 0
M  V30 26 C 7.3222 -1.26 0.0 0
M  V30 27 C 4.3301 0.0 0.0 0
M  V30 28 N 3.4641 -0.5 0.0 0
M  V30 29 C 2.598 0.0 0.0 0
M  V30 30 O 2.598 1.0 0.0 0
M  V30 31 C 1.732 -0.5 0.0 0 CFG=1
M  V30 32 C 1.732 -1.5 0.0 0
M  V30 33 C 0.866 0.0 0.0 0
M  V30 34 C 0.866 -1.9999 0.0 0
M  V30 35 C 2.598 -2.0 0.0 0
M  V30 36 C 0.0 -0.5 0.0 0
M  V30 37 C 0.866 -2.9999 0.0 0
M  V30 38 C 2.598 -3.0 0.0 0
M  V30 39 C 1.732 -3.5 0.0 0
M  V30 END ATOM
M  V30 BEGIN BOND
M  V30 1 2 1 2
M  V30 2 1 2 3
M  V30 3 1 2 4
M  V30 4 2 4 5
M  V30 5 1 4 6
M  V30 6 1 5 7
M  V30 7 1 5 8
M  V30 8 2 6 9
M  V30 9 2 7 10
M  V30 10 1 7 11
M  V30 11 2 8 12
M  V30 12 1 10 13
M  V30 13 2 11 14
M  V30 14 2 13 15
M  V30 15 1 15 16
M  V30 16 1 16 17
M  V30 17 1 17 18
M  V30 18 1 17 19
M  V30 19 2 18 20
M  V30 20 1 18 21
M  V30 21 2 19 22
M  V30 22 1 19 23
M  V30 23 1 20 24
M  V30 24 2 21 25
M  V30 25 1 22 26
M  V30 26 2 24 27
M  V30 27 1 27 28
M  V30 28 1 28 29
M  V30 29 2 29 30
M  V30 30 1 29 31
M  V30 31 1 31 32
M  V30 32 1 31 33 CFG=1
M  V30 33 2 32 34
M  V30 34 1 32 35
M  V30 35 1 33 36
M  V30 36 1 34 37
M  V30 37 2 35 38
M  V30 38 2 37 39
M  V30 39 1 9 12
M  V30 40 1 14 15
M  V30 41 1 20 22
M  V30 42 1 25 27
M  V30 43 1 38 39
M  V30 END BOND
M  V30 BEGIN COLLECTION
M  V30 MDLV30/STERAC1 ATOMS=(1 31)
M  V30 END COLLECTION
M  V30 END CTAB
M  END
>  <Molecule ChEMBL ID>
CHEMBL601861

>  <Smiles>
CCC(C(=O)Nc1ccc2c(c1)c(C)c(C)n2Cc1ccc(-c2ccccc2C(=O)O)cc1)c1ccccc1

>  <IC50_nM>
574

>  <Assay Description>
Displacement of radiolabeled ((5-{4-[Methyl-pyridin-2yl-amino)-ethoxy]-benzyl}-thiazolidine-2,4-dione) from human PPARgamma ligand binding domain expressed in Escherichia coli

$$$$
CHEMBL23881
Actelion Java MolfileCreator 2.0

  0  0  0  0  0  0              0 V3000
M  V30 BEGIN CTAB
M  V30 COUNTS 29 30 0 0 0
M  V30 BEGIN ATOM
M  V30 1 Cl 6.0621 1.0 0.0 0
M  V30 2 C 6.0621 0.0 0.0 0
M  V30 3 C 5.1961 -0.5 0.0 0
M  V30 4 C 6.9282 -0.4999 0.0 0
M  V30 5 S 4.3301 0.0 0.0 0
M  V30 6 C 5.1961 -1.4999 0.0 0
M  V30 7 C 6.9282 -1.4999 0.0 0
M  V30 8 C 3.4641 -0.5 0.0 0
M  V30 9 C 6.0621 -1.9999 0.0 0
M  V30 10 C 7.7942 -1.9999 0.0 0
M  V30 11 C 2.598 0.0 0.0 0
M  V30 12 C 7.7942 -2.9999 0.0 0
M  V30 13 C 1.732 -0.5 0.0 0
M  V30 14 O 6.9282 -3.4999 0.0 0
M  V30 15 O 8.6602 -3.4999 0.0 0
M  V30 16 O 0.866 0.0 0.0 0
M  V30 17 C 0.0 -0.5 0.0 0
M  V30 18 C -0.866 0.0 0.0 0
M  V30 19 C 0.0 -1.4999 0.0 0
M  V30 20 C -1.732 -0.4999 0.0 0
M  V30 21 C -0.866 1.0 0.0 0
M  V30 22 C -0.866 -1.9999 0.0 0
M  V30 23 O -2.598 0.0 0.0 0
M  V30 24 C -1.732 -1.4999 0.0 0
M  V30 25 C 0.0 1.5 0.0 0
M  V30 26 C -2.598 -1.9999 0.0 0
M  V30 27 C 0.0 2.5 0.0 0
M  V30 28 O -3.4641 -1.4999 0.0 0
M  V30 29 C -2.598 -2.9999 0.0 0
M  V30 END ATOM
M  V30 BEGIN BOND
M  V30 1 1 1 2
M  V30 2 2 2 3
M  V30 3 1 2 4
M  V30 4 1 3 5
M  V30 5 1 3 6
M  V30 6 2 4 7
M  V30 7 1 5 8
M  V30 8 2 6 9
M  V30 9 1 7 10
M  V30 10 1 8 11
M  V30 11 1 10 12
M  V30 12 1 11 13
M  V30 13 2 12 14
M  V30 14 1 12 15
M  V30 15 1 13 16
M  V30 16 1 16 17
M  V30 17 2 17 18
M  V30 18 1 17 19
M  V30 19 1 18 20
M  V30 20 1 18 21
M  V30 21 2 19 22
M  V30 22 1 20 23
M  V30 23 2 20 24
M  V30 24 1 21 25
M  V30 25 1 24 26
M  V30 26 1 25 27
M  V30 27 2 26 28
M  V30 28 1 26 29
M  V30 29 1 7 9
M  V30 30 1 22 24
M  V30 END BOND
M  V30 END CTAB
M  END
>  <Molecule ChEMBL ID>
CHEMBL23881

>  <Smiles>
CCCc1c(OCCCSc2ccc(CC(=O)O)cc2Cl)ccc(C(C)=O)c1O

>  <IC50_nM>
579.43

>  <Assay Description>
Agonist activity at PPARgamma

$$$$
CHEMBL23881
Actelion Java MolfileCreator 2.0

  0  0  0  0  0  0              0 V3000
M  V30 BEGIN CTAB
M  V30 COUNTS 29 30 0 0 0
M  V30 BEGIN ATOM
M  V30 1 Cl 6.0621 1.0 0.0 0
M  V30 2 C 6.0621 0.0 0.0 0
M  V30 3 C 5.1961 -0.5 0.0 0
M  V30 4 C 6.9282 -0.4999 0.0 0
M  V30 5 S 4.3301 0.0 0.0 0
M  V30 6 C 5.1961 -1.4999 0.0 0
M  V30 7 C 6.9282 -1.4999 0.0 0
M  V30 8 C 3.4641 -0.5 0.0 0
M  V30 9 C 6.0621 -1.9999 0.0 0
M  V30 10 C 7.7942 -1.9999 0.0 0
M  V30 11 C 2.598 0.0 0.0 0
M  V30 12 C 7.7942 -2.9999 0.0 0
M  V30 13 C 1.732 -0.5 0.0 0
M  V30 14 O 6.9282 -3.4999 0.0 0
M  V30 15 O 8.6602 -3.4999 0.0 0
M  V30 16 O 0.866 0.0 0.0 0
M  V30 17 C 0.0 -0.5 0.0 0
M  V30 18 C -0.866 0.0 0.0 0
M  V30 19 C 0.0 -1.4999 0.0 0
M  V30 20 C -1.732 -0.4999 0.0 0
M  V30 21 C -0.866 1.0 0.0 0
M  V30 22 C -0.866 -1.9999 0.0 0
M  V30 23 O -2.598 0.0 0.0 0
M  V30 24 C -1.732 -1.4999 0.0 0
M  V30 25 C 0.0 1.5 0.0 0
M  V30 26 C -2.598 -1.9999 0.0 0
M  V30 27 C 0.0 2.5 0.0 0
M  V30 28 O -3.4641 -1.4999 0.0 0
M  V30 29 C -2.598 -2.9999 0.0 0
M  V30 END ATOM
M  V30 BEGIN BOND
M  V30 1 1 1 2
M  V30 2 2 2 3
M  V30 3 1 2 4
M  V30 4 1 3 5
M  V30 5 1 3 6
M  V30 6 2 4 7
M  V30 7 1 5 8
M  V30 8 2 6 9
M  V30 9 1 7 10
M  V30 10 1 8 11
M  V30 11 1 10 12
M  V30 12 1 11 13
M  V30 13 2 12 14
M  V30 14 1 12 15
M  V30 15 1 13 16
M  V30 16 1 16 17
M  V30 17 2 17 18
M  V30 18 1 17 19
M  V30 19 1 18 20
M  V30 20 1 18 21
M  V30 21 2 19 22
M  V30 22 1 20 23
M  V30 23 2 20 24
M  V30 24 1 21 25
M  V30 25 1 24 26
M  V30 26 1 25 27
M  V30 27 2 26 28
M  V30 28 1 26 29
M  V30 29 1 7 9
M  V30 30 1 22 24
M  V30 END BOND
M  V30 END CTAB
M  END
>  <Molecule ChEMBL ID>
CHEMBL23881

>  <Smiles>
CCCc1c(OCCCSc2ccc(CC(=O)O)cc2Cl)ccc(C(C)=O)c1O

>  <IC50_nM>
580

>  <Assay Description>
In vitro binding affinity for human PPAR gamma in SPA

$$$$
CHEMBL23881
Actelion Java MolfileCreator 2.0

  0  0  0  0  0  0              0 V3000
M  V30 BEGIN CTAB
M  V30 COUNTS 29 30 0 0 0
M  V30 BEGIN ATOM
M  V30 1 Cl 6.0621 1.0 0.0 0
M  V30 2 C 6.0621 0.0 0.0 0
M  V30 3 C 5.1961 -0.5 0.0 0
M  V30 4 C 6.9282 -0.4999 0.0 0
M  V30 5 S 4.3301 0.0 0.0 0
M  V30 6 C 5.1961 -1.4999 0.0 0
M  V30 7 C 6.9282 -1.4999 0.0 0
M  V30 8 C 3.4641 -0.5 0.0 0
M  V30 9 C 6.0621 -1.9999 0.0 0
M  V30 10 C 7.7942 -1.9999 0.0 0
M  V30 11 C 2.598 0.0 0.0 0
M  V30 12 C 7.7942 -2.9999 0.0 0
M  V30 13 C 1.732 -0.5 0.0 0
M  V30 14 O 6.9282 -3.4999 0.0 0
M  V30 15 O 8.6602 -3.4999 0.0 0
M  V30 16 O 0.866 0.0 0.0 0
M  V30 17 C 0.0 -0.5 0.0 0
M  V30 18 C -0.866 0.0 0.0 0
M  V30 19 C 0.0 -1.4999 0.0 0
M  V30 20 C -1.732 -0.4999 0.0 0
M  V30 21 C -0.866 1.0 0.0 0
M  V30 22 C -0.866 -1.9999 0.0 0
M  V30 23 O -2.598 0.0 0.0 0
M  V30 24 C -1.732 -1.4999 0.0 0
M  V30 25 C 0.0 1.5 0.0 0
M  V30 26 C -2.598 -1.9999 0.0 0
M  V30 27 C 0.0 2.5 0.0 0
M  V30 28 O -3.4641 -1.4999 0.0 0
M  V30 29 C -2.598 -2.9999 0.0 0
M  V30 END ATOM
M  V30 BEGIN BOND
M  V30 1 1 1 2
M  V30 2 2 2 3
M  V30 3 1 2 4
M  V30 4 1 3 5
M  V30 5 1 3 6
M  V30 6 2 4 7
M  V30 7 1 5 8
M  V30 8 2 6 9
M  V30 9 1 7 10
M  V30 10 1 8 11
M  V30 11 1 10 12
M  V30 12 1 11 13
M  V30 13 2 12 14
M  V30 14 1 12 15
M  V30 15 1 13 16
M  V30 16 1 16 17
M  V30 17 2 17 18
M  V30 18 1 17 19
M  V30 19 1 18 20
M  V30 20 1 18 21
M  V30 21 2 19 22
M  V30 22 1 20 23
M  V30 23 2 20 24
M  V30 24 1 21 25
M  V30 25 1 24 26
M  V30 26 1 25 27
M  V30 27 2 26 28
M  V30 28 1 26 29
M  V30 29 1 7 9
M  V30 30 1 22 24
M  V30 END BOND
M  V30 END CTAB
M  END
>  <Molecule ChEMBL ID>
CHEMBL23881

>  <Smiles>
CCCc1c(OCCCSc2ccc(CC(=O)O)cc2Cl)ccc(C(C)=O)c1O

>  <IC50_nM>
580

>  <Assay Description>
Displacement of radio-labeled full agonist from PPARgamma receptor

$$$$
CHEMBL3348830
Actelion Java MolfileCreator 2.0

  0  0  0  0  0  0              0 V3000
M  V30 BEGIN CTAB
M  V30 COUNTS 41 45 0 0 0
M  V30 BEGIN ATOM
M  V30 1 O 6.0621 -3.0 0.0 0
M  V30 2 N 6.0621 -1.9999 0.0 0 CHG=1
M  V30 3 O 6.9282 -1.5 0.0 0 CHG=-1
M  V30 4 C 5.1961 -1.4999 0.0 0
M  V30 5 C 5.1961 -0.5 0.0 0
M  V30 6 C 4.3301 -1.9999 0.0 0
M  V30 7 C 4.3301 0.0 0.0 0
M  V30 8 C 3.4641 -1.5 0.0 0
M  V30 9 C 3.4641 -0.5 0.0 0
M  V30 10 C 2.598 0.0 0.0 0 CFG=1
M  V30 11 N 1.732 -0.5 0.0 0
M  V30 12 C 2.598 1.0 0.0 0
M  V30 13 C 0.866 0.0 0.0 0
M  V30 14 O 0.866 1.0 0.0 0
M  V30 15 C 0.0 -0.5 0.0 0
M  V30 16 C 0.0 -1.4999 0.0 0
M  V30 17 C -0.866 0.0 0.0 0
M  V30 18 C -0.866 -1.9999 0.0 0
M  V30 19 C -1.732 -0.4999 0.0 0
M  V30 20 C -1.732 -1.4999 0.0 0
M  V30 21 C -1.0739 -2.9781 0.0 0
M  V30 22 N -2.4751 -2.1691 0.0 0
M  V30 23 C -2.0684 -3.0826 0.0 0
M  V30 24 C -0.4048 -3.7212 0.0 0
M  V30 25 C -3.4533 -1.9612 0.0 0
M  V30 26 C -2.5684 -3.9487 0.0 0
M  V30 27 C -4.1224 -2.7043 0.0 0
M  V30 28 C -5.1006 -2.4964 0.0 0
M  V30 29 C -3.8134 -3.6554 0.0 0
M  V30 30 C -5.7697 -3.2395 0.0 0
M  V30 31 C -4.4825 -4.3985 0.0 0
M  V30 32 C -5.4607 -4.1906 0.0 0
M  V30 33 C -6.1298 -4.9337 0.0 0
M  V30 34 C -7.108 -4.7258 0.0 0
M  V30 35 C -5.8208 -5.8848 0.0 0
M  V30 36 C -7.417 -3.7748 0.0 0
M  V30 37 C -7.7771 -5.469 0.0 0
M  V30 38 C -6.4899 -6.6279 0.0 0
M  V30 39 O -6.7478 -3.0316 0.0 0
M  V30 40 O -8.3951 -3.5669 0.0 0
M  V30 41 C -7.4681 -6.42 0.0 0
M  V30 END ATOM
M  V30 BEGIN BOND
M  V30 1 2 1 2
M  V30 2 1 2 3
M  V30 3 1 2 4
M  V30 4 2 4 5
M  V30 5 1 4 6
M  V30 6 1 5 7
M  V30 7 2 6 8
M  V30 8 2 7 9
M  V30 9 1 9 10
M  V30 10 1 10 11
M  V30 11 1 10 12 CFG=1
M  V30 12 1 11 13
M  V30 13 2 13 14
M  V30 14 1 13 15
M  V30 15 2 15 16
M  V30 16 1 15 17
M  V30 17 1 16 18
M  V30 18 2 17 19
M  V30 19 2 18 20
M  V30 20 1 18 21
M  V30 21 1 20 22
M  V30 22 2 21 23
M  V30 23 1 21 24
M  V30 24 1 22 25
M  V30 25 1 23 26
M  V30 26 1 25 27
M  V30 27 2 27 28
M  V30 28 1 27 29
M  V30 29 1 28 30
M  V30 30 2 29 31
M  V30 31 2 30 32
M  V30 32 1 32 33
M  V30 33 2 33 34
M  V30 34 1 33 35
M  V30 35 1 34 36
M  V30 36 1 34 37
M  V30 37 2 35 38
M  V30 38 2 36 39
M  V30 39 1 36 40
M  V30 40 2 37 41
M  V30 41 1 8 9
M  V30 42 1 19 20
M  V30 43 1 22 23
M  V30 44 1 31 32
M  V30 45 1 38 41
M  V30 END BOND
M  V30 BEGIN COLLECTION
M  V30 MDLV30/STEABS ATOMS=(1 10)
M  V30 END COLLECTION
M  V30 END CTAB
M  END
>  <Molecule ChEMBL ID>
CHEMBL3348830

>  <Smiles>
Cc1c(C)n(Cc2ccc(-c3ccccc3C(=O)O)cc2)c2ccc(C(=O)N[C@@H](C)c3ccc([N+](=O)[O-])cc3)cc12

>  <IC50_nM>
580

>  <Assay Description>
Inhibition of PPARgamma (unknown origin) phosphorylation at pS273 residue

$$$$
CHEMBL371098
Actelion Java MolfileCreator 2.0

  0  0  0  0  0  0              0 V3000
M  V30 BEGIN CTAB
M  V30 COUNTS 35 38 0 0 0
M  V30 BEGIN ATOM
M  V30 1 F 9.1393 -2.451 0.0 0
M  V30 2 C 8.1882 -2.76 0.0 0
M  V30 3 F 8.4972 -3.7111 0.0 0
M  V30 4 F 7.2372 -3.069 0.0 0
M  V30 5 C 7.8792 -1.809 0.0 0
M  V30 6 N 8.467 -1.0 0.0 0
M  V30 7 C 6.9282 -1.5 0.0 0
M  V30 8 O 7.8792 -0.1909 0.0 0
M  V30 9 C 6.9282 -0.5 0.0 0
M  V30 10 C 6.0621 -2.0 0.0 0
M  V30 11 C 6.0621 0.0 0.0 0
M  V30 12 C 5.1961 -1.4999 0.0 0
M  V30 13 C 5.1961 -0.5 0.0 0
M  V30 14 C 6.0621 0.9999 0.0 0
M  V30 15 O 4.3301 0.0 0.0 0
M  V30 16 C 6.9282 1.4999 0.0 0
M  V30 17 C 3.4641 -0.5 0.0 0
M  V30 18 C 6.9282 2.4999 0.0 0
M  V30 19 C 2.598 0.0 0.0 0
M  V30 20 C 1.732 -0.5 0.0 0
M  V30 21 O 0.866 0.0 0.0 0
M  V30 22 C 0.0 -0.5 0.0 0
M  V30 23 C 0.0 -1.4999 0.0 0
M  V30 24 C -0.866 0.0 0.0 0
M  V30 25 C -0.866 -1.9999 0.0 0
M  V30 26 C -1.732 -0.4999 0.0 0
M  V30 27 C -1.732 -1.4999 0.0 0
M  V30 28 C -1.0739 -2.9781 0.0 0
M  V30 29 N -2.4751 -2.1691 0.0 0
M  V30 30 C -2.0684 -3.0826 0.0 0
M  V30 31 C -3.4533 -1.9612 0.0 0
M  V30 32 C -4.1224 -2.7043 0.0 0
M  V30 33 C -5.1006 -2.4964 0.0 0
M  V30 34 O -5.4096 -1.5453 0.0 0
M  V30 35 O -5.7697 -3.2395 0.0 0
M  V30 END ATOM
M  V30 BEGIN BOND
M  V30 1 1 1 2
M  V30 2 1 2 3
M  V30 3 1 2 4
M  V30 4 1 2 5
M  V30 5 2 5 6
M  V30 6 1 5 7
M  V30 7 1 6 8
M  V30 8 2 7 9
M  V30 9 1 7 10
M  V30 10 1 9 11
M  V30 11 2 10 12
M  V30 12 2 11 13
M  V30 13 1 11 14
M  V30 14 1 13 15
M  V30 15 1 14 16
M  V30 16 1 15 17
M  V30 17 1 16 18
M  V30 18 1 17 19
M  V30 19 1 19 20
M  V30 20 1 20 21
M  V30 21 1 21 22
M  V30 22 2 22 23
M  V30 23 1 22 24
M  V30 24 1 23 25
M  V30 25 2 24 26
M  V30 26 2 25 27
M  V30 27 1 25 28
M  V30 28 1 27 29
M  V30 29 2 28 30
M  V30 30 1 29 31
M  V30 31 1 31 32
M  V30 32 1 32 33
M  V30 33 2 33 34
M  V30 34 1 33 35
M  V30 35 1 8 9
M  V30 36 1 12 13
M  V30 37 1 26 27
M  V30 38 1 29 30
M  V30 END BOND
M  V30 END CTAB
M  END
>  <Molecule ChEMBL ID>
CHEMBL371098

>  <Smiles>
CCCc1c(OCCCOc2ccc3c(ccn3CCC(=O)O)c2)ccc2c(C(F)(F)F)noc12

>  <IC50_nM>
584

>  <Assay Description>
Displacement of [3H]rosiglitazone from human PPAR gamma by SPA assay

$$$$
CHEMBL478335
Actelion Java MolfileCreator 2.0

  0  0  0  0  0  0              0 V3000
M  V30 BEGIN CTAB
M  V30 COUNTS 38 42 0 0 0
M  V30 BEGIN ATOM
M  V30 1 O 6.9282 -4.5 0.0 0
M  V30 2 C 6.9282 -3.5 0.0 0
M  V30 3 O 7.7942 -3.0 0.0 0
M  V30 4 C 6.0621 -3.0 0.0 0 CFG=1
M  V30 5 C 5.1961 -3.5 0.0 0
M  V30 6 C 6.0621 -1.9999 0.0 0
M  V30 7 C 4.3301 -2.9999 0.0 0
M  V30 8 C 5.1961 -4.5 0.0 0
M  V30 9 C 5.1961 -1.4999 0.0 0
M  V30 10 C 3.4641 -3.4999 0.0 0
M  V30 11 C 4.3301 -4.9999 0.0 0
M  V30 12 C 5.1961 -0.5 0.0 0
M  V30 13 C 4.3301 -1.9999 0.0 0
M  V30 14 C 3.4641 -4.4999 0.0 0
M  V30 15 C 4.3301 0.0 0.0 0
M  V30 16 C 3.4641 -1.5 0.0 0
M  V30 17 C 2.598 -4.9999 0.0 0
M  V30 18 C 3.4641 -0.5 0.0 0
M  V30 19 C 1.732 -4.4999 0.0 0
M  V30 20 C 2.598 -5.9999 0.0 0
M  V30 21 C 2.598 0.0 0.0 0
M  V30 22 C 0.866 -4.9999 0.0 0
M  V30 23 C 1.732 -6.4999 0.0 0
M  V30 24 C 1.732 -0.5 0.0 0
M  V30 25 C 0.866 -5.9999 0.0 0
M  V30 26 C 0.866 0.0 0.0 0
M  V30 27 C 0.0 -0.5 0.0 0
M  V30 28 N -0.9135 -0.0932 0.0 0
M  V30 29 C -0.1045 -1.4945 0.0 0
M  V30 30 C -1.5826 -0.8364 0.0 0
M  V30 31 O -1.0826 -1.7024 0.0 0
M  V30 32 C 0.6386 -2.1636 0.0 0
M  V30 33 C -2.5771 -0.7318 0.0 0
M  V30 34 C -2.9839 0.1816 0.0 0
M  V30 35 C -3.1649 -1.5408 0.0 0
M  V30 36 C -3.9784 0.2861 0.0 0
M  V30 37 C -4.1595 -1.4363 0.0 0
M  V30 38 C -4.5662 -0.5228 0.0 0
M  V30 END ATOM
M  V30 BEGIN BOND
M  V30 1 2 1 2
M  V30 2 1 2 3
M  V30 3 1 2 4
M  V30 4 1 4 5
M  V30 5 1 4 6 CFG=1
M  V30 6 2 5 7
M  V30 7 1 5 8
M  V30 8 1 6 9
M  V30 9 1 7 10
M  V30 10 2 8 11
M  V30 11 2 9 12
M  V30 12 1 9 13
M  V30 13 2 10 14
M  V30 14 1 12 15
M  V30 15 2 13 16
M  V30 16 1 14 17
M  V30 17 2 15 18
M  V30 18 2 17 19
M  V30 19 1 17 20
M  V30 20 1 18 21
M  V30 21 1 19 22
M  V30 22 2 20 23
M  V30 23 1 21 24
M  V30 24 2 22 25
M  V30 25 1 24 26
M  V30 26 1 26 27
M  V30 27 1 27 28
M  V30 28 2 27 29
M  V30 29 2 28 30
M  V30 30 1 29 31
M  V30 31 1 29 32
M  V30 32 1 30 33
M  V30 33 2 33 34
M  V30 34 1 33 35
M  V30 35 1 34 36
M  V30 36 2 35 37
M  V30 37 2 36 38
M  V30 38 1 11 14
M  V30 39 1 16 18
M  V30 40 1 23 25
M  V30 41 1 30 31
M  V30 42 1 37 38
M  V30 END BOND
M  V30 BEGIN COLLECTION
M  V30 MDLV30/STERAC1 ATOMS=(1 4)
M  V30 END COLLECTION
M  V30 END CTAB
M  END
>  <Molecule ChEMBL ID>
CHEMBL478335

>  <Smiles>
Cc1oc(-c2ccccc2)nc1CCCc1ccc(CC(C(=O)O)c2ccc(-c3ccccc3)cc2)cc1

>  <IC50_nM>
587

>  <Assay Description>
Displacement of [3H]darglitazone from human PPARgamma by scintillation proximity assay

$$$$
CHEMBL4088467
Actelion Java MolfileCreator 2.0

  0  0  0  0  0  0              0 V3000
M  V30 BEGIN CTAB
M  V30 COUNTS 36 39 0 0 0
M  V30 BEGIN ATOM
M  V30 1 S 5.1961 -0.75 0.0 0
M  V30 2 O 4.4461 -2.049 0.0 0
M  V30 3 O 5.9461 -2.049 0.0 0
M  V30 4 N 3.8971 0.0 0.0 0
M  V30 5 C 6.4951 0.0 0.0 0
M  V30 6 C 2.598 -0.75 0.0 0
M  V30 7 C 7.7942 -0.75 0.0 0
M  V30 8 C 6.4951 1.5 0.0 0
M  V30 9 O 2.598 -2.25 0.0 0
M  V30 10 N 1.299 0.0 0.0 0
M  V30 11 C 9.0932 0.0 0.0 0
M  V30 12 C 7.7942 2.25 0.0 0
M  V30 13 C 0.0 -0.75 0.0 0
M  V30 14 C 9.0932 1.5 0.0 0
M  V30 15 C -1.299 0.0 0.0 0
M  V30 16 C 0.0 -2.25 0.0 0
M  V30 17 N 10.3923 2.25 0.0 0
M  V30 18 C -2.598 -0.75 0.0 0
M  V30 19 C -1.299 -3.0 0.0 0
M  V30 20 C 10.3923 3.75 0.0 0
M  V30 21 C -2.598 -2.25 0.0 0
M  V30 22 O 9.0932 4.5 0.0 0
M  V30 23 C 11.6913 4.5 0.0 0
M  V30 24 N 11.6913 6.0 0.0 0
M  V30 25 C 10.3923 6.75 0.0 0
M  V30 26 C 12.9903 6.75 0.0 0
M  V30 27 O 9.0932 6.0 0.0 0
M  V30 28 C 10.3923 8.25 0.0 0
M  V30 29 N 12.9903 8.25 0.0 0
M  V30 30 C 14.2894 6.0 0.0 0
M  V30 31 C 11.6913 9.0 0.0 0
M  V30 32 C 9.0932 9.0 0.0 0
M  V30 33 C 14.2894 4.5 0.0 0
M  V30 34 C 11.6913 10.5 0.0 0
M  V30 35 C 9.0932 10.5 0.0 0
M  V30 36 C 10.3923 11.25 0.0 0
M  V30 END ATOM
M  V30 BEGIN BOND
M  V30 1 2 1 2
M  V30 2 2 1 3
M  V30 3 1 1 4
M  V30 4 1 1 5
M  V30 5 1 4 6
M  V30 6 2 5 7
M  V30 7 1 5 8
M  V30 8 2 6 9
M  V30 9 1 6 10
M  V30 10 1 7 11
M  V30 11 2 8 12
M  V30 12 1 10 13
M  V30 13 2 11 14
M  V30 14 1 13 15
M  V30 15 1 13 16
M  V30 16 1 14 17
M  V30 17 1 15 18
M  V30 18 1 16 19
M  V30 19 1 17 20
M  V30 20 1 18 21
M  V30 21 2 20 22
M  V30 22 1 20 23
M  V30 23 1 23 24
M  V30 24 1 24 25
M  V30 25 1 24 26
M  V30 26 2 25 27
M  V30 27 1 25 28
M  V30 28 2 26 29
M  V30 29 1 26 30
M  V30 30 2 28 31
M  V30 31 1 28 32
M  V30 32 1 30 33
M  V30 33 1 31 34
M  V30 34 2 32 35
M  V30 35 2 34 36
M  V30 36 1 12 14
M  V30 37 1 19 21
M  V30 38 1 29 31
M  V30 39 1 35 36
M  V30 END BOND
M  V30 END CTAB
M  END
>  <Molecule ChEMBL ID>
CHEMBL4088467

>  <Smiles>
CCc1nc2ccccc2c(=O)n1CC(=O)Nc1ccc(S(=O)(=O)NC(=O)NC2CCCCC2)cc1

>  <IC50_nM>
590

>  <Assay Description>
Displacement of fluormone-PPARgamma green from GST-tagged PPARgamma-LBD (unknown origin) by fluorescence polarization assay

$$$$
CHEMBL3398439
Actelion Java MolfileCreator 2.0

  0  0  0  0  0  0              0 V3000
M  V30 BEGIN CTAB
M  V30 COUNTS 39 43 0 0 0
M  V30 BEGIN ATOM
M  V30 1 O 7.8298 -3.4249 0.0 0
M  V30 2 C 8.4176 -2.6159 0.0 0
M  V30 3 O 9.4121 -2.7205 0.0 0
M  V30 4 N 8.0108 -1.7024 0.0 0
M  V30 5 C 9.9999 -1.9114 0.0 0
M  V30 6 C 8.5108 -0.8364 0.0 0
M  V30 7 C 7.0327 -1.4945 0.0 0
M  V30 8 C 10.9944 -2.016 0.0 0
M  V30 9 C 9.5931 -0.9979 0.0 0
M  V30 10 C 7.8417 -0.0932 0.0 0 CFG=2
M  V30 11 C 6.9282 -0.5 0.0 0 CFG=1
M  V30 12 C 11.5822 -1.207 0.0 0
M  V30 13 C 10.1809 -0.1889 0.0 0
M  V30 14 C 8.0496 0.8848 0.0 0
M  V30 15 C 6.0621 0.0 0.0 0
M  V30 16 C 11.1754 -0.2934 0.0 0
M  V30 17 O 9.0007 1.1939 0.0 0
M  V30 18 O 7.3065 1.554 0.0 0
M  V30 19 C 5.1961 -0.5 0.0 0
M  V30 20 C 4.3301 0.0 0.0 0
M  V30 21 C 5.1961 -1.4999 0.0 0
M  V30 22 C 3.4641 -0.5 0.0 0
M  V30 23 C 4.3301 -1.9999 0.0 0
M  V30 24 O 2.598 0.0 0.0 0
M  V30 25 C 3.4641 -1.4999 0.0 0
M  V30 26 C 1.732 -0.5 0.0 0
M  V30 27 C 0.866 0.0 0.0 0
M  V30 28 C 0.0 -0.5 0.0 0
M  V30 29 N -0.9135 -0.0932 0.0 0
M  V30 30 C -0.1045 -1.4945 0.0 0
M  V30 31 C -1.5826 -0.8364 0.0 0
M  V30 32 O -1.0826 -1.7024 0.0 0
M  V30 33 C 0.6386 -2.1636 0.0 0
M  V30 34 C -2.5771 -0.7318 0.0 0
M  V30 35 C -2.9839 0.1816 0.0 0
M  V30 36 C -3.1649 -1.5408 0.0 0
M  V30 37 C -3.9784 0.2861 0.0 0
M  V30 38 C -4.1595 -1.4363 0.0 0
M  V30 39 C -4.5662 -0.5228 0.0 0
M  V30 END ATOM
M  V30 BEGIN BOND
M  V30 1 2 1 2
M  V30 2 1 2 3
M  V30 3 1 2 4
M  V30 4 1 3 5
M  V30 5 1 4 6
M  V30 6 1 4 7
M  V30 7 2 5 8
M  V30 8 1 5 9
M  V30 9 1 6 10
M  V30 10 1 7 11
M  V30 11 1 8 12
M  V30 12 2 9 13
M  V30 13 1 10 14 CFG=3
M  V30 14 1 11 15 CFG=3
M  V30 15 2 12 16
M  V30 16 2 14 17
M  V30 17 1 14 18
M  V30 18 1 15 19
M  V30 19 2 19 20
M  V30 20 1 19 21
M  V30 21 1 20 22
M  V30 22 2 21 23
M  V30 23 1 22 24
M  V30 24 2 22 25
M  V30 25 1 24 26
M  V30 26 1 26 27
M  V30 27 1 27 28
M  V30 28 1 28 29
M  V30 29 2 28 30
M  V30 30 2 29 31
M  V30 31 1 30 32
M  V30 32 1 30 33
M  V30 33 1 31 34
M  V30 34 2 34 35
M  V30 35 1 34 36
M  V30 36 1 35 37
M  V30 37 2 36 38
M  V30 38 2 37 39
M  V30 39 1 10 11
M  V30 40 1 13 16
M  V30 41 1 23 25
M  V30 42 1 31 32
M  V30 43 1 38 39
M  V30 END BOND
M  V30 BEGIN COLLECTION
M  V30 MDLV30/STEABS ATOMS=(2 10 11)
M  V30 END COLLECTION
M  V30 END CTAB
M  END
>  <Molecule ChEMBL ID>
CHEMBL3398439

>  <Smiles>
Cc1oc(-c2ccccc2)nc1CCOc1cccc(C[C@H]2CN(C(=O)Oc3ccccc3)C[C@H]2C(=O)O)c1

>  <IC50_nM>
590

>  <Assay Description>
Binding affinity to PPARgamma (unknown origin) using fluorescein-tagged dual PPARalpha/gamma activator by homogeneous fluorescence polarization binding assay

$$$$
CHEMBL3398453
Actelion Java MolfileCreator 2.0

  0  0  0  0  0  0              0 V3000
M  V30 BEGIN CTAB
M  V30 COUNTS 39 44 0 0 0
M  V30 BEGIN ATOM
M  V30 1 O 8.5653 -3.9478 0.0 0
M  V30 2 C 7.8222 -3.2787 0.0 0
M  V30 3 O 8.0301 -2.3006 0.0 0
M  V30 4 C 6.8711 -3.5877 0.0 0 CFG=2
M  V30 5 C 6.0621 -3.0 0.0 0 CFG=1
M  V30 6 C 6.5621 -4.5388 0.0 0
M  V30 7 C 5.2531 -3.5877 0.0 0
M  V30 8 C 6.0621 -2.0 0.0 0
M  V30 9 N 5.5621 -4.5388 0.0 0
M  V30 10 C 5.1961 -1.4999 0.0 0
M  V30 11 C 4.9743 -5.3478 0.0 0
M  V30 12 C 5.1961 -0.5 0.0 0
M  V30 13 C 4.3301 -1.9999 0.0 0
M  V30 14 O 3.9743 -5.3478 0.0 0
M  V30 15 N 5.2834 -6.2989 0.0 0
M  V30 16 C 4.3301 0.0 0.0 0
M  V30 17 C 3.4641 -1.5 0.0 0
M  V30 18 C 3.6653 -6.2989 0.0 0
M  V30 19 C 4.4743 -6.8867 0.0 0
M  V30 20 C 3.4641 -0.5 0.0 0
M  V30 21 C 2.7518 -6.7056 0.0 0
M  V30 22 C 4.3698 -7.8812 0.0 0
M  V30 23 O 2.598 0.0 0.0 0
M  V30 24 C 2.6473 -7.7001 0.0 0
M  V30 25 C 3.4563 -8.2879 0.0 0
M  V30 26 C 1.732 -0.5 0.0 0
M  V30 27 C 0.866 0.0 0.0 0
M  V30 28 C 0.0 -0.5 0.0 0
M  V30 29 N -0.9135 -0.0932 0.0 0
M  V30 30 C -0.1045 -1.4945 0.0 0
M  V30 31 C -1.5826 -0.8364 0.0 0
M  V30 32 O -1.0826 -1.7024 0.0 0
M  V30 33 C 0.6386 -2.1636 0.0 0
M  V30 34 C -2.5771 -0.7318 0.0 0
M  V30 35 C -2.9839 0.1816 0.0 0
M  V30 36 C -3.1649 -1.5408 0.0 0
M  V30 37 C -3.9784 0.2861 0.0 0
M  V30 38 C -4.1595 -1.4363 0.0 0
M  V30 39 C -4.5662 -0.5228 0.0 0
M  V30 END ATOM
M  V30 BEGIN BOND
M  V30 1 2 1 2
M  V30 2 1 2 3
M  V30 3 1 4 2 CFG=1
M  V30 4 1 4 5
M  V30 5 1 4 6
M  V30 6 1 5 7
M  V30 7 1 5 8 CFG=1
M  V30 8 1 6 9
M  V30 9 1 8 10
M  V30 10 1 9 11
M  V30 11 2 10 12
M  V30 12 1 10 13
M  V30 13 1 11 14
M  V30 14 2 11 15
M  V30 15 1 12 16
M  V30 16 2 13 17
M  V30 17 1 14 18
M  V30 18 1 15 19
M  V30 19 2 16 20
M  V30 20 1 18 21
M  V30 21 1 19 22
M  V30 22 1 20 23
M  V30 23 2 21 24
M  V30 24 2 22 25
M  V30 25 1 23 26
M  V30 26 1 26 27
M  V30 27 1 27 28
M  V30 28 1 28 29
M  V30 29 2 28 30
M  V30 30 2 29 31
M  V30 31 1 30 32
M  V30 32 1 30 33
M  V30 33 1 31 34
M  V30 34 2 34 35
M  V30 35 1 34 36
M  V30 36 1 35 37
M  V30 37 2 36 38
M  V30 38 2 37 39
M  V30 39 1 7 9
M  V30 40 1 17 20
M  V30 41 2 18 19
M  V30 42 1 24 25
M  V30 43 1 31 32
M  V30 44 1 38 39
M  V30 END BOND
M  V30 BEGIN COLLECTION
M  V30 MDLV30/STEABS ATOMS=(2 4 5)
M  V30 END COLLECTION
M  V30 END CTAB
M  END
>  <Molecule ChEMBL ID>
CHEMBL3398453

>  <Smiles>
Cc1oc(-c2ccccc2)nc1CCOc1ccc(C[C@@H]2CN(c3nc4ccccc4o3)C[C@@H]2C(=O)O)cc1

>  <IC50_nM>
590

>  <Assay Description>
Binding affinity to PPARgamma (unknown origin) using fluorescein-tagged dual PPARalpha/gamma activator by homogeneous fluorescence polarization binding assay

$$$$
CHEMBL254815
Actelion Java MolfileCreator 2.0

  0  0  0  0  0  0              0 V3000
M  V30 BEGIN CTAB
M  V30 COUNTS 37 40 0 0 0
M  V30 BEGIN ATOM
M  V30 1 Cl 9.5262 3.9999 0.0 0
M  V30 2 C 9.5262 2.9999 0.0 0
M  V30 3 C 8.6602 2.4999 0.0 0
M  V30 4 C 10.3923 2.4999 0.0 0
M  V30 5 O 7.7942 2.9999 0.0 0
M  V30 6 C 8.6602 1.4999 0.0 0
M  V30 7 C 10.3923 1.4999 0.0 0
M  V30 8 C 11.2583 2.9999 0.0 0
M  V30 9 C 7.7942 3.9999 0.0 0
M  V30 10 C 7.7942 0.9999 0.0 0
M  V30 11 C 9.5262 0.9999 0.0 0
M  V30 12 C 6.9282 1.4999 0.0 0
M  V30 13 C 7.7942 0.0 0.0 0
M  V30 14 C 9.5262 0.0 0.0 0
M  V30 15 O 6.9282 2.4999 0.0 0
M  V30 16 C 6.0621 0.9999 0.0 0
M  V30 17 C 6.9282 -0.5 0.0 0
M  V30 18 C 8.6602 -0.5 0.0 0
M  V30 19 C 6.0621 0.0 0.0 0
M  V30 20 C 5.1961 1.4999 0.0 0
M  V30 21 O 6.9282 -1.5 0.0 0
M  V30 22 O 8.6602 -1.5 0.0 0
M  V30 23 C 5.1961 -0.5 0.0 0
M  V30 24 C 4.3301 0.9999 0.0 0
M  V30 25 O 5.1961 -1.5 0.0 0
M  V30 26 C 4.3301 0.0 0.0 0
M  V30 27 C 3.4641 1.4999 0.0 0
M  V30 28 C 3.4641 -0.5 0.0 0 CFG=1
M  V30 29 O 2.598 0.9999 0.0 0
M  V30 30 O 3.4641 2.4999 0.0 0
M  V30 31 O 2.598 0.0 0.0 0
M  V30 32 C 3.4641 -1.5 0.0 0
M  V30 33 C 2.598 3.0 0.0 0
M  V30 34 C 1.732 -0.5 0.0 0
M  V30 35 O 1.732 -1.5 0.0 0
M  V30 36 C 0.866 0.0 0.0 0
M  V30 37 O 0.0 -0.5 0.0 0
M  V30 END ATOM
M  V30 BEGIN BOND
M  V30 1 1 1 2
M  V30 2 2 2 3
M  V30 3 1 2 4
M  V30 4 1 3 5
M  V30 5 1 3 6
M  V30 6 2 4 7
M  V30 7 1 4 8
M  V30 8 1 5 9
M  V30 9 2 6 10
M  V30 10 1 6 11
M  V30 11 1 10 12
M  V30 12 1 10 13
M  V30 13 2 11 14
M  V30 14 2 12 15
M  V30 15 1 12 16
M  V30 16 1 13 17
M  V30 17 2 13 18
M  V30 18 2 16 19
M  V30 19 1 16 20
M  V30 20 2 17 21
M  V30 21 1 18 22
M  V30 22 1 19 23
M  V30 23 2 20 24
M  V30 24 1 23 25
M  V30 25 2 23 26
M  V30 26 1 24 27
M  V30 27 1 26 28
M  V30 28 2 27 29
M  V30 29 1 27 30
M  V30 30 1 28 31
M  V30 31 1 28 32 CFG=3
M  V30 32 1 30 33
M  V30 33 1 31 34
M  V30 34 2 34 35
M  V30 35 1 34 36
M  V30 36 1 36 37
M  V30 37 1 7 11
M  V30 38 1 14 18
M  V30 39 1 17 19
M  V30 40 1 24 26
M  V30 END BOND
M  V30 BEGIN COLLECTION
M  V30 MDLV30/STERAC1 ATOMS=(1 28)
M  V30 END COLLECTION
M  V30 END CTAB
M  END
>  <Molecule ChEMBL ID>
CHEMBL254815

>  <Smiles>
COC(=O)c1cc2c(c(O)c1C(C)OC(=O)CO)C(=O)c1c(O)cc3cc(C)c(Cl)c(OC)c3c1C2=O

>  <IC50_nM>
600

>  <Assay Description>
Antagonist activity at human PPARgamma receptor in CHO-K1 cells assessed as rosiglitazone-induced receptor activation by cell based reporter assay

$$$$
CHEMBL248906
Actelion Java MolfileCreator 2.0

  0  0  0  0  0  0              0 V3000
M  V30 BEGIN CTAB
M  V30 COUNTS 35 36 0 0 0
M  V30 BEGIN ATOM
M  V30 1 F 9.5262 1.0 0.0 0
M  V30 2 C 9.5262 0.0 0.0 0
M  V30 3 C 8.6602 -0.5 0.0 0
M  V30 4 C 10.3923 -0.4999 0.0 0
M  V30 5 N 7.7942 0.0 0.0 0
M  V30 6 C 8.6602 -1.5 0.0 0
M  V30 7 C 10.3923 -1.4999 0.0 0
M  V30 8 C 6.9282 -0.5 0.0 0
M  V30 9 C 9.5262 -1.9999 0.0 0
M  V30 10 F 11.2583 -1.9999 0.0 0
M  V30 11 O 6.9282 -1.4999 0.0 0
M  V30 12 N 6.0621 0.0 0.0 0
M  V30 13 C 6.0621 0.9999 0.0 0
M  V30 14 C 5.1961 -0.5 0.0 0
M  V30 15 C 6.9282 1.4999 0.0 0
M  V30 16 C 4.3301 0.0 0.0 0
M  V30 17 C 6.9282 2.4999 0.0 0
M  V30 18 C 3.4641 -0.5 0.0 0
M  V30 19 C 7.7942 2.9999 0.0 0
M  V30 20 C 6.0621 3.0 0.0 0
M  V30 21 C 2.598 0.0 0.0 0
M  V30 22 C 7.7942 3.9999 0.0 0
M  V30 23 C 6.0621 3.9999 0.0 0
M  V30 24 C 1.732 -0.5 0.0 0
M  V30 25 C 6.9282 4.4999 0.0 0
M  V30 26 C 0.866 0.0 0.0 0
M  V30 27 O 6.9282 5.4999 0.0 0
M  V30 28 C 0.0 -0.5 0.0 0
M  V30 29 C 6.0621 5.9999 0.0 0 CFG=2
M  V30 30 C 5.1961 5.5 0.0 0
M  V30 31 C 6.0621 7.0 0.0 0
M  V30 32 C 6.0621 5.0 0.0 0
M  V30 33 O 5.1961 4.5 0.0 0
M  V30 34 O 4.3301 6.0 0.0 0
M  V30 35 C 5.1961 7.5 0.0 0
M  V30 END ATOM
M  V30 BEGIN BOND
M  V30 1 1 1 2
M  V30 2 2 2 3
M  V30 3 1 2 4
M  V30 4 1 3 5
M  V30 5 1 3 6
M  V30 6 2 4 7
M  V30 7 1 5 8
M  V30 8 2 6 9
M  V30 9 1 7 10
M  V30 10 2 8 11
M  V30 11 1 8 12
M  V30 12 1 12 13
M  V30 13 1 12 14
M  V30 14 1 13 15
M  V30 15 1 14 16
M  V30 16 1 15 17
M  V30 17 1 16 18
M  V30 18 2 17 19
M  V30 19 1 17 20
M  V30 20 1 18 21
M  V30 21 1 19 22
M  V30 22 2 20 23
M  V30 23 1 21 24
M  V30 24 2 22 25
M  V30 25 1 24 26
M  V30 26 1 25 27
M  V30 27 1 26 28
M  V30 28 1 27 29
M  V30 29 1 29 30
M  V30 30 1 29 31
M  V30 31 1 29 32 CFG=1
M  V30 32 2 30 33
M  V30 33 1 30 34
M  V30 34 1 31 35
M  V30 35 1 7 9
M  V30 36 1 23 25
M  V30 END BOND
M  V30 BEGIN COLLECTION
M  V30 MDLV30/STEABS ATOMS=(1 29)
M  V30 END COLLECTION
M  V30 END CTAB
M  END
>  <Molecule ChEMBL ID>
CHEMBL248906

>  <Smiles>
CCCCCCCN(CCc1ccc(O[C@@](C)(CC)C(=O)O)cc1)C(=O)Nc1ccc(F)cc1F

>  <IC50_nM>
600

>  <Assay Description>
Inhibition of PPARgamma

$$$$
CHEMBL3699434
Actelion Java MolfileCreator 2.0

  0  0  0  0  0  0              0 V3000
M  V30 BEGIN CTAB
M  V30 COUNTS 44 48 0 0 0
M  V30 BEGIN ATOM
M  V30 1 O 2.598 0.0 0.0 0
M  V30 2 C 3.4641 -0.5 0.0 0
M  V30 3 N 4.3301 0.0 0.0 0
M  V30 4 C 3.4641 -1.5 0.0 0
M  V30 5 C 5.1961 -0.4999 0.0 0
M  V30 6 C 2.598 -1.9999 0.0 0
M  V30 7 C 4.3301 -2.0 0.0 0
M  V30 8 C 6.0621 0.0 0.0 0
M  V30 9 C 1.732 -1.4999 0.0 0
M  V30 10 C 2.598 -2.9999 0.0 0
M  V30 11 C 4.3301 -3.0 0.0 0
M  V30 12 O 6.9282 -0.5 0.0 0
M  V30 13 C 1.732 -0.4999 0.0 0
M  V30 14 C 0.866 -1.9999 0.0 0
M  V30 15 C 3.4641 -3.5 0.0 0
M  V30 16 C 0.866 0.0 0.0 0
M  V30 17 C 0.0 -1.4999 0.0 0
M  V30 18 C 0.0 -0.4999 0.0 0
M  V30 19 C -0.866 0.0 0.0 0
M  V30 20 N -1.732 -0.4999 0.0 0
M  V30 21 C -2.6455 -0.0932 0.0 0
M  V30 22 C -1.8365 -1.4945 0.0 0
M  V30 23 C -3.3147 -0.8364 0.0 0
M  V30 24 C -2.9546 0.8577 0.0 0
M  V30 25 C -2.8147 -1.7024 0.0 0
M  V30 26 C -1.0934 -2.1636 0.0 0
M  V30 27 C -4.2928 -0.6284 0.0 0
M  V30 28 C -3.9327 1.0657 0.0 0
M  V30 29 C -3.2214 -2.6159 0.0 0
M  V30 30 C -4.6018 0.3225 0.0 0
M  V30 31 C -5.58 0.5304 0.0 0
M  V30 32 O -5.889 1.4815 0.0 0
M  V30 33 N -6.2491 -0.2126 0.0 0
M  V30 34 C -7.2273 -0.0047 0.0 0 CFG=2
M  V30 35 C -7.5363 0.9462 0.0 0
M  V30 36 C -7.8964 -0.7479 0.0 0
M  V30 37 C -6.8672 1.6894 0.0 0
M  V30 38 C -8.5144 1.1542 0.0 0
M  V30 39 C -7.1762 2.6404 0.0 0
M  V30 40 C -8.8234 2.1052 0.0 0
M  V30 41 C -8.1543 2.8484 0.0 0
M  V30 42 C -6.507 3.3836 0.0 0
M  V30 43 C -5.5289 3.1757 0.0 0
M  V30 44 C -6.8161 4.3346 0.0 0
M  V30 END ATOM
M  V30 BEGIN BOND
M  V30 1 2 1 2
M  V30 2 1 2 3
M  V30 3 1 2 4
M  V30 4 1 3 5
M  V30 5 2 4 6
M  V30 6 1 4 7
M  V30 7 1 5 8
M  V30 8 1 6 9
M  V30 9 1 6 10
M  V30 10 2 7 11
M  V30 11 1 8 12
M  V30 12 2 9 13
M  V30 13 1 9 14
M  V30 14 2 10 15
M  V30 15 1 13 16
M  V30 16 2 14 17
M  V30 17 2 16 18
M  V30 18 1 18 19
M  V30 19 1 19 20
M  V30 20 1 20 21
M  V30 21 1 20 22
M  V30 22 2 21 23
M  V30 23 1 21 24
M  V30 24 2 22 25
M  V30 25 1 22 26
M  V30 26 1 23 27
M  V30 27 2 24 28
M  V30 28 1 25 29
M  V30 29 2 27 30
M  V30 30 1 30 31
M  V30 31 2 31 32
M  V30 32 1 31 33
M  V30 33 1 33 34
M  V30 34 1 34 35
M  V30 35 1 34 36 CFG=1
M  V30 36 2 35 37
M  V30 37 1 35 38
M  V30 38 1 37 39
M  V30 39 2 38 40
M  V30 40 2 39 41
M  V30 41 1 39 42
M  V30 42 1 42 43
M  V30 43 1 42 44
M  V30 44 1 11 15
M  V30 45 1 17 18
M  V30 46 1 23 25
M  V30 47 1 28 30
M  V30 48 1 40 41
M  V30 END BOND
M  V30 BEGIN COLLECTION
M  V30 MDLV30/STEABS ATOMS=(1 34)
M  V30 END COLLECTION
M  V30 END CTAB
M  END
>  <Molecule ChEMBL ID>
CHEMBL3699434

>  <Smiles>
Cc1c(C)n(Cc2ccc(-c3ccccc3C(=O)NCCO)cc2)c2ccc(C(=O)N[C@@H](C)c3cccc(C(C)C)c3)cc12

>  <IC50_nM>
600

>  <Assay Description>
Lanthascreen Competitive Binding Assay: The assay was performed according to manufacturer protocol. A mixture of nM GST-PPARG-LBD, 5 nM Tb-GST-antibody, 5 nM Fluormone Pan-PPAR Green, and serial dilutions of the experimental compound, beginning at 10 ׬M downwards, was added to wells of black 384-well low-volume plates (Greiner) to a total volume of 18 ׬L. All dilutions were made in TR-FRET assay buffer C. DMSO at 2% final concentration was used as a no-ligand control. Experiment was performed in triplicate, and incubated for 2 hours in the dark prior to assay read in Perkin Elmer ViewLux ultra HTS microplate reader. FRET signal was measured by excitation at 340 nm and emission at 520 nm for fluorescein and 490 nm for terbium. Fold change over DMSO was calculated using GraphPad Prism Software (La Jolla, Calif.) by calculating 520 nm/490 nm ratio. Graphs were plotted as fold change of FRET signal for compound treatment over DMSO-only control.

$$$$
CHEMBL230350
Actelion Java MolfileCreator 2.0

  0  0  0  0  0  0              0 V3000
M  V30 BEGIN CTAB
M  V30 COUNTS 32 35 0 0 0
M  V30 BEGIN ATOM
M  V30 1 O 9.5262 1.0 0.0 0
M  V30 2 C 8.6602 1.5 0.0 0
M  V30 3 N 8.6602 2.5 0.0 0
M  V30 4 N 7.7942 1.0 0.0 0
M  V30 5 C 7.7942 2.9999 0.0 0
M  V30 6 C 6.9282 1.4999 0.0 0 CFG=2
M  V30 7 C 6.9282 2.4999 0.0 0
M  V30 8 C 7.7942 4.0 0.0 0
M  V30 9 C 6.0621 0.9999 0.0 0
M  V30 10 C 6.0621 2.9999 0.0 0
M  V30 11 C 5.1961 1.4999 0.0 0
M  V30 12 C 6.0621 0.0 0.0 0
M  V30 13 O 6.0621 3.9999 0.0 0
M  V30 14 O 5.1961 2.4999 0.0 0
M  V30 15 C 4.3301 0.9999 0.0 0
M  V30 16 C 5.1961 -0.5 0.0 0
M  V30 17 C 4.3301 0.0 0.0 0
M  V30 18 O 3.4641 -0.5 0.0 0
M  V30 19 C 2.598 0.0 0.0 0
M  V30 20 C 1.732 -0.5 0.0 0
M  V30 21 O 0.866 0.0 0.0 0
M  V30 22 C 0.0 -0.5 0.0 0
M  V30 23 C -0.866 0.0 0.0 0
M  V30 24 C 0.0 -1.4999 0.0 0
M  V30 25 N -0.866 1.0 0.0 0
M  V30 26 C -1.732 -0.4999 0.0 0
M  V30 27 C -0.866 -1.9999 0.0 0
M  V30 28 C -1.732 1.5 0.0 0
M  V30 29 C -2.598 0.0 0.0 0
M  V30 30 C -1.732 -1.4999 0.0 0
M  V30 31 C -2.598 1.0 0.0 0
M  V30 32 C -1.732 2.5 0.0 0
M  V30 END ATOM
M  V30 BEGIN BOND
M  V30 1 2 1 2
M  V30 2 1 2 3
M  V30 3 1 2 4
M  V30 4 1 3 5
M  V30 5 1 4 6
M  V30 6 2 5 7
M  V30 7 1 5 8
M  V30 8 1 6 9 CFG=1
M  V30 9 1 7 10
M  V30 10 2 9 11
M  V30 11 1 9 12
M  V30 12 2 10 13
M  V30 13 1 10 14
M  V30 14 1 11 15
M  V30 15 2 12 16
M  V30 16 2 15 17
M  V30 17 1 17 18
M  V30 18 1 18 19
M  V30 19 1 19 20
M  V30 20 1 20 21
M  V30 21 1 21 22
M  V30 22 1 22 23
M  V30 23 2 22 24
M  V30 24 2 23 25
M  V30 25 1 23 26
M  V30 26 1 24 27
M  V30 27 1 25 28
M  V30 28 2 26 29
M  V30 29 1 26 30
M  V30 30 2 28 31
M  V30 31 1 28 32
M  V30 32 1 6 7
M  V30 33 1 16 17
M  V30 34 2 27 30
M  V30 35 1 29 31
M  V30 END BOND
M  V30 BEGIN COLLECTION
M  V30 MDLV30/STERAC1 ATOMS=(1 6)
M  V30 END COLLECTION
M  V30 END CTAB
M  END
>  <Molecule ChEMBL ID>
CHEMBL230350

>  <Smiles>
CC1=C(C(=O)O)C(c2ccc(OCCOc3cccc4ccc(C)nc34)cc2)NC(=O)N1

>  <IC50_nM>
600

>  <Assay Description>
Displacement of [3H]rosiglitazone from PPAR gamma

$$$$
CHEMBL1551302
Actelion Java MolfileCreator 2.0

  0  0  0  0  0  0              0 V3000
M  V30 BEGIN CTAB
M  V30 COUNTS 25 27 0 0 0
M  V30 BEGIN ATOM
M  V30 1 O 9.0932 1.4999 0.0 0
M  V30 2 C 9.0932 0.0 0.0 0
M  V30 3 C 7.7942 -0.75 0.0 0
M  V30 4 C 10.3923 -0.75 0.0 0
M  V30 5 C 7.7942 -2.25 0.0 0
M  V30 6 C 6.4951 0.0 0.0 0
M  V30 7 C 10.3923 -2.25 0.0 0 CFG=2
M  V30 8 O 9.0932 -3.0 0.0 0
M  V30 9 C 6.4951 -3.0 0.0 0
M  V30 10 C 5.1961 -0.75 0.0 0
M  V30 11 C 11.6913 -3.0 0.0 0
M  V30 12 C 5.1961 -2.2499 0.0 0
M  V30 13 C 3.8971 0.0 0.0 0
M  V30 14 C 11.6913 -4.5 0.0 0
M  V30 15 C 12.9903 -2.25 0.0 0
M  V30 16 O 3.8971 -2.9999 0.0 0
M  V30 17 C 2.598 -0.75 0.0 0
M  V30 18 C 12.9903 -5.25 0.0 0
M  V30 19 C 14.2894 -3.0 0.0 0
M  V30 20 C 3.8971 -4.4999 0.0 0
M  V30 21 C 1.299 0.0 0.0 0
M  V30 22 C 14.2894 -4.5 0.0 0
M  V30 23 C 1.299 1.5 0.0 0
M  V30 24 C 0.0 -0.75 0.0 0
M  V30 25 O 15.5884 -5.25 0.0 0
M  V30 END ATOM
M  V30 BEGIN BOND
M  V30 1 2 1 2
M  V30 2 1 2 3
M  V30 3 1 2 4
M  V30 4 2 3 5
M  V30 5 1 3 6
M  V30 6 1 4 7
M  V30 7 1 5 8
M  V30 8 1 5 9
M  V30 9 2 6 10
M  V30 10 1 7 11 CFG=1
M  V30 11 2 9 12
M  V30 12 1 10 13
M  V30 13 2 11 14
M  V30 14 1 11 15
M  V30 15 1 12 16
M  V30 16 1 13 17
M  V30 17 1 14 18
M  V30 18 2 15 19
M  V30 19 1 16 20
M  V30 20 2 17 21
M  V30 21 2 18 22
M  V30 22 1 21 23
M  V30 23 1 21 24
M  V30 24 1 22 25
M  V30 25 1 7 8
M  V30 26 1 10 12
M  V30 27 1 19 22
M  V30 END BOND
M  V30 BEGIN COLLECTION
M  V30 MDLV30/STEABS ATOMS=(1 7)
M  V30 END COLLECTION
M  V30 END CTAB
M  END
>  <Molecule ChEMBL ID>
CHEMBL1551302

>  <Smiles>
COc1cc2c(cc1CC=C(C)C)C(=O)C[C@@H](c1ccc(O)cc1)O2

>  <IC50_nM>
616.7

>  <Assay Description>
Agonist activity at PPARgamma ligand binding domain (unknown origin) using fluormone Pan-PPAR green tracer by TR-FRET assay based competitive ligand binding method

$$$$
CHEMBL1092387
Actelion Java MolfileCreator 2.0

  0  0  0  0  0  0              0 V3000
M  V30 BEGIN CTAB
M  V30 COUNTS 41 46 0 0 0
M  V30 BEGIN ATOM
M  V30 1 O 2.598 -2.0 0.0 0
M  V30 2 C 3.4641 -1.5 0.0 0
M  V30 3 N 3.4641 -0.5 0.0 0
M  V30 4 C 4.3301 -2.0 0.0 0
M  V30 5 C 2.598 0.0 0.0 0
M  V30 6 C 4.3301 0.0 0.0 0
M  V30 7 C 5.1961 -1.5 0.0 0
M  V30 8 C 4.3301 -2.9999 0.0 0
M  V30 9 O 2.598 1.0 0.0 0
M  V30 10 N 1.732 -0.5 0.0 0
M  V30 11 O 5.1961 -0.5 0.0 0
M  V30 12 O 4.3301 1.0 0.0 0
M  V30 13 C 6.0621 -2.0 0.0 0
M  V30 14 O 3.5869 -3.6691 0.0 0
M  V30 15 C 5.1961 -3.4999 0.0 0
M  V30 16 C 0.866 0.0 0.0 0
M  V30 17 C 3.4641 1.5 0.0 0
M  V30 18 C 6.0621 -3.0 0.0 0
M  V30 19 C 3.9937 -4.5826 0.0 0
M  V30 20 C 4.9882 -4.4781 0.0 0 CFG=1
M  V30 21 C 0.0 -0.5 0.0 0
M  V30 22 O 6.9282 -3.5 0.0 0
M  V30 23 C 3.5869 -5.4962 0.0 0
M  V30 24 C 5.576 -5.2871 0.0 0
M  V30 25 C 5.9663 -4.2702 0.0 0
M  V30 26 C -0.866 0.0 0.0 0
M  V30 27 C 0.0 -1.4999 0.0 0
M  V30 28 C 4.1747 -6.3052 0.0 0
M  V30 29 O 6.5705 -5.1826 0.0 0
M  V30 30 C 5.1692 -6.2007 0.0 0
M  V30 31 C -1.732 -0.4999 0.0 0
M  V30 32 C -0.866 1.0 0.0 0
M  V30 33 C -0.866 -1.9999 0.0 0
M  V30 34 O 3.768 -7.2187 0.0 0
M  V30 35 C 5.757 -7.0097 0.0 0
M  V30 36 C -1.732 -1.4999 0.0 0
M  V30 37 C -2.598 0.0 0.0 0
M  V30 38 C -1.732 1.5 0.0 0
M  V30 39 O 5.3503 -7.9232 0.0 0
M  V30 40 C 6.7515 -6.9051 0.0 0
M  V30 41 C -2.598 1.0 0.0 0
M  V30 END ATOM
M  V30 BEGIN BOND
M  V30 1 2 1 2
M  V30 2 1 2 3
M  V30 3 1 2 4
M  V30 4 1 3 5
M  V30 5 1 3 6
M  V30 6 2 4 7
M  V30 7 1 4 8
M  V30 8 2 5 9
M  V30 9 1 5 10
M  V30 10 1 6 11
M  V30 11 1 6 12
M  V30 12 1 7 13
M  V30 13 1 8 14
M  V30 14 2 8 15
M  V30 15 1 10 16
M  V30 16 1 12 17
M  V30 17 2 13 18
M  V30 18 1 14 19
M  V30 19 1 15 20
M  V30 20 1 16 21
M  V30 21 1 18 22
M  V30 22 2 19 23
M  V30 23 1 20 24
M  V30 24 1 20 25 CFG=1
M  V30 25 1 21 26
M  V30 26 2 21 27
M  V30 27 1 23 28
M  V30 28 2 24 29
M  V30 29 1 24 30
M  V30 30 1 26 31
M  V30 31 2 26 32
M  V30 32 1 27 33
M  V30 33 1 28 34
M  V30 34 1 30 35
M  V30 35 1 31 36
M  V30 36 2 31 37
M  V30 37 1 32 38
M  V30 38 2 35 39
M  V30 39 1 35 40
M  V30 40 1 37 41
M  V30 41 1 7 11
M  V30 42 1 15 18
M  V30 43 1 19 20
M  V30 44 2 28 30
M  V30 45 2 33 36
M  V30 46 2 38 41
M  V30 END BOND
M  V30 BEGIN COLLECTION
M  V30 MDLV30/STEABS ATOMS=(1 20)
M  V30 END COLLECTION
M  V30 END CTAB
M  END
>  <Molecule ChEMBL ID>
CHEMBL1092387

>  <Smiles>
COC1Oc2cc(O)c3c(c2C(=O)N1C(=O)NCc1cccc2ccccc12)OC1=CC(O)=C(C(C)=O)C(=O)[C@]13C

>  <IC50_nM>
620

>  <Assay Description>
Inhibition of PPARgamma assessed as transcriptional activity

$$$$
CHEMBL5270306
Actelion Java MolfileCreator 2.0

  0  0  0  0  0  0              0 V3000
M  V30 BEGIN CTAB
M  V30 COUNTS 29 32 0 0 0
M  V30 BEGIN ATOM
M  V30 1 S 4.3776 -0.0932 0.0 0
M  V30 2 C 3.4641 -0.5 0.0 0
M  V30 3 C 5.0467 -0.8364 0.0 0
M  V30 4 C 3.5686 -1.4945 0.0 0
M  V30 5 C 2.598 0.0 0.0 0
M  V30 6 C 4.5467 -1.7024 0.0 0
M  V30 7 C 1.732 -0.5 0.0 0
M  V30 8 O 0.866 0.0 0.0 0
M  V30 9 C 0.0 -0.5 0.0 0
M  V30 10 C -0.866 0.0 0.0 0
M  V30 11 C 0.0 -1.4999 0.0 0
M  V30 12 C -1.732 -0.4999 0.0 0
M  V30 13 C -0.866 1.0 0.0 0
M  V30 14 C -0.866 -1.9999 0.0 0
M  V30 15 C -1.732 -1.4999 0.0 0
M  V30 16 C -1.732 1.5 0.0 0
M  V30 17 C -1.8365 2.4945 0.0 0
M  V30 18 C -2.6455 1.0932 0.0 0
M  V30 19 O -1.0934 3.1636 0.0 0
M  V30 20 C -2.8147 2.7024 0.0 0
M  V30 21 C -3.3147 1.8364 0.0 0
M  V30 22 C -3.3147 3.5684 0.0 0
M  V30 23 C -4.3147 1.8364 0.0 0
M  V30 24 C -4.3147 3.5684 0.0 0
M  V30 25 C -4.8147 2.7024 0.0 0
M  V30 26 O -4.8147 4.4344 0.0 0
M  V30 27 O -5.8147 2.7024 0.0 0
M  V30 28 C -5.8147 4.4344 0.0 0
M  V30 29 C -6.3147 1.8364 0.0 0
M  V30 END ATOM
M  V30 BEGIN BOND
M  V30 1 1 1 2
M  V30 2 1 1 3
M  V30 3 2 2 4
M  V30 4 1 2 5
M  V30 5 2 3 6
M  V30 6 1 5 7
M  V30 7 1 7 8
M  V30 8 1 8 9
M  V30 9 2 9 10
M  V30 10 1 9 11
M  V30 11 1 10 12
M  V30 12 1 10 13
M  V30 13 2 11 14
M  V30 14 2 12 15
M  V30 15 2 13 16
M  V30 16 1 16 17
M  V30 17 1 16 18
M  V30 18 2 17 19
M  V30 19 1 17 20
M  V30 20 1 18 21
M  V30 21 1 20 22
M  V30 22 1 21 23
M  V30 23 2 22 24
M  V30 24 2 23 25
M  V30 25 1 24 26
M  V30 26 1 25 27
M  V30 27 1 26 28
M  V30 28 1 27 29
M  V30 29 1 4 6
M  V30 30 1 14 15
M  V30 31 2 20 21
M  V30 32 1 24 25
M  V30 END BOND
M  V30 END CTAB
M  END
>  <Molecule ChEMBL ID>
CHEMBL5270306

>  <Smiles>
COc1cc2c(cc1OC)C(=O)/C(=C/c1ccccc1OCCc1cccs1)C2

>  <IC50_nM>
620

>  <Assay Description>
Binding affinity to PPARgamma (unknown origin) by competitive binding assay

$$$$
CHEMBL202617
Actelion Java MolfileCreator 2.0

  0  0  0  0  0  0              0 V3000
M  V30 BEGIN CTAB
M  V30 COUNTS 36 40 0 0 0
M  V30 BEGIN ATOM
M  V30 1 O 9.5262 -2.9999 0.0 0
M  V30 2 C 8.6602 -3.5 0.0 0
M  V30 3 C 7.7942 -2.9999 0.0 0
M  V30 4 C 8.6602 -4.5 0.0 0
M  V30 5 C 7.7942 -1.9999 0.0 0
M  V30 6 C 6.9282 -3.4999 0.0 0
M  V30 7 C 7.7942 -4.9999 0.0 0
M  V30 8 C 9.5262 -5.0 0.0 0
M  V30 9 C 6.9282 -1.4999 0.0 0
M  V30 10 C 6.0621 -2.9999 0.0 0
M  V30 11 C 7.7942 -5.9999 0.0 0
M  V30 12 C 9.5262 -6.0 0.0 0
M  V30 13 C 6.0621 -1.9999 0.0 0
M  V30 14 C 6.9282 -0.5 0.0 0
M  V30 15 C 8.6602 -6.4999 0.0 0
M  V30 16 C 5.1961 -1.4999 0.0 0
M  V30 17 C 6.0621 0.0 0.0 0
M  V30 18 C 5.1961 -0.5 0.0 0
M  V30 19 O 4.3301 0.0 0.0 0
M  V30 20 C 3.4641 -0.5 0.0 0
M  V30 21 C 2.598 0.0 0.0 0
M  V30 22 C 1.732 -0.5 0.0 0
M  V30 23 O 0.866 0.0 0.0 0
M  V30 24 C 0.0 -0.5 0.0 0
M  V30 25 C 0.0 -1.4999 0.0 0
M  V30 26 C -0.866 0.0 0.0 0
M  V30 27 C -0.866 -1.9999 0.0 0
M  V30 28 C -1.732 -0.4999 0.0 0
M  V30 29 C -1.732 -1.4999 0.0 0
M  V30 30 C -1.0739 -2.9781 0.0 0
M  V30 31 N -2.4751 -2.1691 0.0 0
M  V30 32 C -2.0684 -3.0826 0.0 0
M  V30 33 C -3.4533 -1.9612 0.0 0
M  V30 34 C -3.7623 -1.0101 0.0 0
M  V30 35 O -3.0932 -0.267 0.0 0
M  V30 36 O -4.7405 -0.8022 0.0 0
M  V30 END ATOM
M  V30 BEGIN BOND
M  V30 1 2 1 2
M  V30 2 1 2 3
M  V30 3 1 2 4
M  V30 4 2 3 5
M  V30 5 1 3 6
M  V30 6 2 4 7
M  V30 7 1 4 8
M  V30 8 1 5 9
M  V30 9 2 6 10
M  V30 10 1 7 11
M  V30 11 2 8 12
M  V30 12 1 9 13
M  V30 13 2 9 14
M  V30 14 2 11 15
M  V30 15 2 13 16
M  V30 16 1 14 17
M  V30 17 1 16 18
M  V30 18 1 18 19
M  V30 19 1 19 20
M  V30 20 1 20 21
M  V30 21 1 21 22
M  V30 22 1 22 23
M  V30 23 1 23 24
M  V30 24 2 24 25
M  V30 25 1 24 26
M  V30 26 1 25 27
M  V30 27 2 26 28
M  V30 28 2 27 29
M  V30 29 1 27 30
M  V30 30 1 29 31
M  V30 31 2 30 32
M  V30 32 1 31 33
M  V30 33 1 33 34
M  V30 34 2 34 35
M  V30 35 1 34 36
M  V30 36 1 10 13
M  V30 37 1 12 15
M  V30 38 2 17 18
M  V30 39 1 28 29
M  V30 40 1 31 32
M  V30 END BOND
M  V30 END CTAB
M  END
>  <Molecule ChEMBL ID>
CHEMBL202617

>  <Smiles>
O=C(O)Cn1ccc2cc(OCCCOc3ccc4cc(C(=O)c5ccccc5)ccc4c3)ccc21

>  <IC50_nM>
629

>  <Assay Description>
Displacement of [3H]rosiglitazone from human PPAR gamma by SPA assay

$$$$
CHEMBL202617
Actelion Java MolfileCreator 2.0

  0  0  0  0  0  0              0 V3000
M  V30 BEGIN CTAB
M  V30 COUNTS 36 40 0 0 0
M  V30 BEGIN ATOM
M  V30 1 O 9.5262 -2.9999 0.0 0
M  V30 2 C 8.6602 -3.5 0.0 0
M  V30 3 C 7.7942 -2.9999 0.0 0
M  V30 4 C 8.6602 -4.5 0.0 0
M  V30 5 C 7.7942 -1.9999 0.0 0
M  V30 6 C 6.9282 -3.4999 0.0 0
M  V30 7 C 7.7942 -4.9999 0.0 0
M  V30 8 C 9.5262 -5.0 0.0 0
M  V30 9 C 6.9282 -1.4999 0.0 0
M  V30 10 C 6.0621 -2.9999 0.0 0
M  V30 11 C 7.7942 -5.9999 0.0 0
M  V30 12 C 9.5262 -6.0 0.0 0
M  V30 13 C 6.0621 -1.9999 0.0 0
M  V30 14 C 6.9282 -0.5 0.0 0
M  V30 15 C 8.6602 -6.4999 0.0 0
M  V30 16 C 5.1961 -1.4999 0.0 0
M  V30 17 C 6.0621 0.0 0.0 0
M  V30 18 C 5.1961 -0.5 0.0 0
M  V30 19 O 4.3301 0.0 0.0 0
M  V30 20 C 3.4641 -0.5 0.0 0
M  V30 21 C 2.598 0.0 0.0 0
M  V30 22 C 1.732 -0.5 0.0 0
M  V30 23 O 0.866 0.0 0.0 0
M  V30 24 C 0.0 -0.5 0.0 0
M  V30 25 C 0.0 -1.4999 0.0 0
M  V30 26 C -0.866 0.0 0.0 0
M  V30 27 C -0.866 -1.9999 0.0 0
M  V30 28 C -1.732 -0.4999 0.0 0
M  V30 29 C -1.732 -1.4999 0.0 0
M  V30 30 C -1.0739 -2.9781 0.0 0
M  V30 31 N -2.4751 -2.1691 0.0 0
M  V30 32 C -2.0684 -3.0826 0.0 0
M  V30 33 C -3.4533 -1.9612 0.0 0
M  V30 34 C -3.7623 -1.0101 0.0 0
M  V30 35 O -3.0932 -0.267 0.0 0
M  V30 36 O -4.7405 -0.8022 0.0 0
M  V30 END ATOM
M  V30 BEGIN BOND
M  V30 1 2 1 2
M  V30 2 1 2 3
M  V30 3 1 2 4
M  V30 4 2 3 5
M  V30 5 1 3 6
M  V30 6 2 4 7
M  V30 7 1 4 8
M  V30 8 1 5 9
M  V30 9 2 6 10
M  V30 10 1 7 11
M  V30 11 2 8 12
M  V30 12 1 9 13
M  V30 13 2 9 14
M  V30 14 2 11 15
M  V30 15 2 13 16
M  V30 16 1 14 17
M  V30 17 1 16 18
M  V30 18 1 18 19
M  V30 19 1 19 20
M  V30 20 1 20 21
M  V30 21 1 21 22
M  V30 22 1 22 23
M  V30 23 1 23 24
M  V30 24 2 24 25
M  V30 25 1 24 26
M  V30 26 1 25 27
M  V30 27 2 26 28
M  V30 28 2 27 29
M  V30 29 1 27 30
M  V30 30 1 29 31
M  V30 31 2 30 32
M  V30 32 1 31 33
M  V30 33 1 33 34
M  V30 34 2 34 35
M  V30 35 1 34 36
M  V30 36 1 10 13
M  V30 37 1 12 15
M  V30 38 2 17 18
M  V30 39 1 28 29
M  V30 40 1 31 32
M  V30 END BOND
M  V30 END CTAB
M  END
>  <Molecule ChEMBL ID>
CHEMBL202617

>  <Smiles>
O=C(O)Cn1ccc2cc(OCCCOc3ccc4cc(C(=O)c5ccccc5)ccc4c3)ccc21

>  <IC50_nM>
629.51

>  <Assay Description>
Agonist activity at PPARgamma

$$$$
CHEMBL2031856
Actelion Java MolfileCreator 2.0

  0  0  0  0  0  0              0 V3000
M  V30 BEGIN CTAB
M  V30 COUNTS 28 29 0 0 0
M  V30 BEGIN ATOM
M  V30 1 O 19.4855 -7.5 0.0 0
M  V30 2 C 18.1865 -6.75 0.0 0
M  V30 3 C 20.7846 -6.75 0.0 0
M  V30 4 C 18.1865 -5.2499 0.0 0
M  V30 5 C 16.8874 -7.5 0.0 0
M  V30 6 C 16.8874 -4.5 0.0 0
M  V30 7 C 15.5884 -6.75 0.0 0
M  V30 8 C 15.5884 -5.25 0.0 0
M  V30 9 C 14.2894 -4.5 0.0 0
M  V30 10 C 14.2894 -3.0 0.0 0
M  V30 11 C 12.9903 -2.25 0.0 0
M  V30 12 C 12.9903 -0.75 0.0 0
M  V30 13 C 11.6913 -3.0 0.0 0
M  V30 14 C 11.6913 0.0 0.0 0
M  V30 15 C 10.3923 -2.25 0.0 0
M  V30 16 O 11.6913 1.4999 0.0 0
M  V30 17 C 10.3923 -0.75 0.0 0
M  V30 18 O 9.0932 -2.9999 0.0 0
M  V30 19 C 9.0932 0.0 0.0 0
M  V30 20 C 7.7942 -0.75 0.0 0
M  V30 21 C 6.4951 0.0 0.0 0
M  V30 22 C 5.1961 -0.75 0.0 0
M  V30 23 C 6.4951 1.5 0.0 0
M  V30 24 C 3.8971 0.0 0.0 0
M  V30 25 C 2.598 -0.75 0.0 0
M  V30 26 C 1.299 0.0 0.0 0
M  V30 27 C 1.299 1.5 0.0 0
M  V30 28 C 0.0 -0.75 0.0 0
M  V30 END ATOM
M  V30 BEGIN BOND
M  V30 1 1 1 2
M  V30 2 1 1 3
M  V30 3 2 2 4
M  V30 4 1 2 5
M  V30 5 1 4 6
M  V30 6 2 5 7
M  V30 7 2 6 8
M  V30 8 1 8 9
M  V30 9 2 9 10
M  V30 10 1 10 11
M  V30 11 2 11 12
M  V30 12 1 11 13
M  V30 13 1 12 14
M  V30 14 2 13 15
M  V30 15 1 14 16
M  V30 16 2 14 17
M  V30 17 1 15 18
M  V30 18 1 17 19
M  V30 19 1 19 20
M  V30 20 2 20 21
M  V30 21 1 21 22
M  V30 22 1 21 23
M  V30 23 1 22 24
M  V30 24 1 24 25
M  V30 25 2 25 26
M  V30 26 1 26 27
M  V30 27 1 26 28
M  V30 28 1 7 8
M  V30 29 1 15 17
M  V30 END BOND
M  V30 END CTAB
M  END
>  <Molecule ChEMBL ID>
CHEMBL2031856

>  <Smiles>
COc1ccc(/C=C/c2cc(O)c(C/C=C(\C)CCC=C(C)C)c(O)c2)cc1

>  <IC50_nM>
630

>  <Assay Description>
Binding affinity to GST-tagged human PPARgamma by TR-FRET analysis

$$$$
CHEMBL107991
Actelion Java MolfileCreator 2.0

  0  0  0  0  0  0              0 V3000
M  V30 BEGIN CTAB
M  V30 COUNTS 38 41 0 0 0
M  V30 BEGIN ATOM
M  V30 1 O 10.3923 -0.4999 0.0 0
M  V30 2 C 9.5262 0.0 0.0 0
M  V30 3 O 9.5262 1.0 0.0 0
M  V30 4 C 8.6602 -0.5 0.0 0 CFG=1
M  V30 5 O 7.7942 0.0 0.0 0
M  V30 6 C 8.6602 -1.5 0.0 0
M  V30 7 C 8.6602 0.5 0.0 0
M  V30 8 C 6.9282 -0.5 0.0 0
M  V30 9 C 7.7942 -1.9999 0.0 0
M  V30 10 C 7.7942 1.0 0.0 0
M  V30 11 C 6.9282 -1.5 0.0 0
M  V30 12 C 6.0621 0.0 0.0 0
M  V30 13 C 6.0621 -2.0 0.0 0
M  V30 14 C 5.1961 -0.5 0.0 0
M  V30 15 C 5.1961 -1.5 0.0 0
M  V30 16 O 4.3301 0.0 0.0 0
M  V30 17 C 3.4641 -0.5 0.0 0
M  V30 18 C 2.598 0.0 0.0 0
M  V30 19 C 1.732 -0.5 0.0 0
M  V30 20 O 0.866 0.0 0.0 0
M  V30 21 C 0.0 -0.5 0.0 0
M  V30 22 C -0.866 0.0 0.0 0
M  V30 23 C 0.0 -1.4999 0.0 0
M  V30 24 C -1.732 -0.4999 0.0 0
M  V30 25 C -0.866 1.0 0.0 0
M  V30 26 C -0.866 -1.9999 0.0 0
M  V30 27 C -1.732 -1.4999 0.0 0
M  V30 28 C 0.0 1.5 0.0 0
M  V30 29 O -2.598 -1.9999 0.0 0
M  V30 30 C 0.0 2.5 0.0 0
M  V30 31 C -2.598 -2.9999 0.0 0
M  V30 32 C -3.4641 -3.4999 0.0 0
M  V30 33 C -1.732 -3.4999 0.0 0
M  V30 34 C -3.4641 -4.4999 0.0 0
M  V30 35 C -1.732 -4.4999 0.0 0
M  V30 36 C -2.598 -4.9999 0.0 0
M  V30 37 O -2.598 -5.9999 0.0 0
M  V30 38 C -1.732 -6.4999 0.0 0
M  V30 END ATOM
M  V30 BEGIN BOND
M  V30 1 2 1 2
M  V30 2 1 2 3
M  V30 3 1 2 4
M  V30 4 1 4 5
M  V30 5 1 4 6
M  V30 6 1 4 7 CFG=1
M  V30 7 1 5 8
M  V30 8 1 6 9
M  V30 9 1 7 10
M  V30 10 2 8 11
M  V30 11 1 8 12
M  V30 12 1 11 13
M  V30 13 2 12 14
M  V30 14 2 13 15
M  V30 15 1 14 16
M  V30 16 1 16 17
M  V30 17 1 17 18
M  V30 18 1 18 19
M  V30 19 1 19 20
M  V30 20 1 20 21
M  V30 21 2 21 22
M  V30 22 1 21 23
M  V30 23 1 22 24
M  V30 24 1 22 25
M  V30 25 2 23 26
M  V30 26 2 24 27
M  V30 27 1 25 28
M  V30 28 1 27 29
M  V30 29 1 28 30
M  V30 30 1 29 31
M  V30 31 2 31 32
M  V30 32 1 31 33
M  V30 33 1 32 34
M  V30 34 2 33 35
M  V30 35 2 34 36
M  V30 36 1 36 37
M  V30 37 1 37 38
M  V30 38 1 9 11
M  V30 39 1 14 15
M  V30 40 1 26 27
M  V30 41 1 35 36
M  V30 END BOND
M  V30 BEGIN COLLECTION
M  V30 MDLV30/STERAC1 ATOMS=(1 4)
M  V30 END COLLECTION
M  V30 END CTAB
M  END
>  <Molecule ChEMBL ID>
CHEMBL107991

>  <Smiles>
CCCc1cc(Oc2ccc(OC)cc2)ccc1OCCCOc1ccc2c(c1)OC(CC)(C(=O)O)CC2

>  <IC50_nM>
630

>  <Assay Description>
In vitro binding affinity for human peroxisome proliferator activated receptor gamma using scintillation proximity assay (SPA)

$$$$
CHEMBL564368
Actelion Java MolfileCreator 2.0

  0  0  0  0  0  0              0 V3000
M  V30 BEGIN CTAB
M  V30 COUNTS 21 20 0 0 0
M  V30 BEGIN ATOM
M  V30 1 O 14.2894 1.4999 0.0 0
M  V30 2 N 14.2894 0.0 0.0 0 CHG=1
M  V30 3 O 15.5884 -0.7499 0.0 0 CHG=-1
M  V30 4 C 12.9903 -0.75 0.0 0
M  V30 5 C 11.6913 0.0 0.0 0
M  V30 6 C 12.9903 -2.25 0.0 0
M  V30 7 C 10.3923 -0.75 0.0 0
M  V30 8 C 14.2894 -2.9999 0.0 0
M  V30 9 C 9.0932 0.0 0.0 0
M  V30 10 C 14.2894 -4.5 0.0 0
M  V30 11 C 7.7942 -0.75 0.0 0
M  V30 12 C 15.5884 -5.25 0.0 0
M  V30 13 C 6.4951 0.0 0.0 0
M  V30 14 C 15.5884 -6.7499 0.0 0
M  V30 15 C 5.1961 -0.75 0.0 0
M  V30 16 C 16.8874 -7.4999 0.0 0
M  V30 17 C 3.8971 0.0 0.0 0
M  V30 18 C 2.598 -0.75 0.0 0
M  V30 19 C 1.299 0.0 0.0 0
M  V30 20 O 1.299 1.5 0.0 0
M  V30 21 O 0.0 -0.75 0.0 0
M  V30 END ATOM
M  V30 BEGIN BOND
M  V30 1 2 1 2
M  V30 2 1 2 3
M  V30 3 1 2 4
M  V30 4 2 4 5
M  V30 5 1 4 6
M  V30 6 1 5 7
M  V30 7 1 6 8
M  V30 8 1 7 9
M  V30 9 1 8 10
M  V30 10 1 9 11
M  V30 11 1 10 12
M  V30 12 1 11 13
M  V30 13 1 12 14
M  V30 14 1 13 15
M  V30 15 1 14 16
M  V30 16 1 15 17
M  V30 17 1 17 18
M  V30 18 1 18 19
M  V30 19 2 19 20
M  V30 20 1 19 21
M  V30 END BOND
M  V30 END CTAB
M  END
>  <Molecule ChEMBL ID>
CHEMBL564368

>  <Smiles>
CCCCCC/C(=C\CCCCCCCC(=O)O)[N+](=O)[O-]

>  <IC50_nM>
630

>  <Assay Description>
Displacement of [3H2]nTZD3 from GST-tagged human recombinant PPARgamma by scintillation proximity assay

$$$$
CHEMBL3699402
Actelion Java MolfileCreator 2.0

  0  0  0  0  0  0              0 V3000
M  V30 BEGIN CTAB
M  V30 COUNTS 42 46 0 0 0
M  V30 BEGIN ATOM
M  V30 1 S 6.0621 -1.9999 0.0 0
M  V30 2 O 5.5621 -2.866 0.0 0
M  V30 3 O 6.5621 -1.1339 0.0 0
M  V30 4 C 5.1961 -1.4999 0.0 0
M  V30 5 C 6.9282 -2.5 0.0 0
M  V30 6 C 5.1961 -0.5 0.0 0
M  V30 7 C 4.3301 -1.9999 0.0 0
M  V30 8 C 4.3301 0.0 0.0 0
M  V30 9 C 3.4641 -1.5 0.0 0
M  V30 10 C 3.4641 -0.5 0.0 0
M  V30 11 C 2.598 0.0 0.0 0 CFG=1
M  V30 12 N 1.732 -0.5 0.0 0
M  V30 13 C 2.598 1.0 0.0 0
M  V30 14 C 0.866 0.0 0.0 0
M  V30 15 O 0.866 1.0 0.0 0
M  V30 16 C 0.0 -0.5 0.0 0
M  V30 17 C 0.0 -1.4999 0.0 0
M  V30 18 C -0.866 0.0 0.0 0
M  V30 19 C -0.866 -1.9999 0.0 0
M  V30 20 C -1.732 -0.4999 0.0 0
M  V30 21 C -1.732 -1.4999 0.0 0
M  V30 22 C -1.0739 -2.9781 0.0 0
M  V30 23 N -2.4751 -2.1691 0.0 0
M  V30 24 C -2.0684 -3.0826 0.0 0
M  V30 25 C -0.4048 -3.7212 0.0 0
M  V30 26 C -3.4533 -1.9612 0.0 0
M  V30 27 C -2.5684 -3.9487 0.0 0
M  V30 28 C -4.1224 -2.7043 0.0 0
M  V30 29 C -5.1006 -2.4964 0.0 0
M  V30 30 C -3.8134 -3.6554 0.0 0
M  V30 31 C -5.7697 -3.2395 0.0 0
M  V30 32 C -4.4825 -4.3985 0.0 0
M  V30 33 C -5.4607 -4.1906 0.0 0
M  V30 34 C -6.1298 -4.9337 0.0 0
M  V30 35 C -7.108 -4.7258 0.0 0
M  V30 36 C -5.8208 -5.8848 0.0 0
M  V30 37 C -7.417 -3.7748 0.0 0
M  V30 38 C -7.7771 -5.469 0.0 0
M  V30 39 C -6.4899 -6.6279 0.0 0
M  V30 40 O -6.7478 -3.0316 0.0 0
M  V30 41 O -8.3951 -3.5669 0.0 0
M  V30 42 C -7.4681 -6.42 0.0 0
M  V30 END ATOM
M  V30 BEGIN BOND
M  V30 1 2 1 2
M  V30 2 2 1 3
M  V30 3 1 1 4
M  V30 4 1 1 5
M  V30 5 2 4 6
M  V30 6 1 4 7
M  V30 7 1 6 8
M  V30 8 2 7 9
M  V30 9 2 8 10
M  V30 10 1 10 11
M  V30 11 1 11 12
M  V30 12 1 11 13 CFG=1
M  V30 13 1 12 14
M  V30 14 2 14 15
M  V30 15 1 14 16
M  V30 16 2 16 17
M  V30 17 1 16 18
M  V30 18 1 17 19
M  V30 19 2 18 20
M  V30 20 2 19 21
M  V30 21 1 19 22
M  V30 22 1 21 23
M  V30 23 2 22 24
M  V30 24 1 22 25
M  V30 25 1 23 26
M  V30 26 1 24 27
M  V30 27 1 26 28
M  V30 28 2 28 29
M  V30 29 1 28 30
M  V30 30 1 29 31
M  V30 31 2 30 32
M  V30 32 2 31 33
M  V30 33 1 33 34
M  V30 34 2 34 35
M  V30 35 1 34 36
M  V30 36 1 35 37
M  V30 37 1 35 38
M  V30 38 2 36 39
M  V30 39 2 37 40
M  V30 40 1 37 41
M  V30 41 2 38 42
M  V30 42 1 9 10
M  V30 43 1 20 21
M  V30 44 1 23 24
M  V30 45 1 32 33
M  V30 46 1 39 42
M  V30 END BOND
M  V30 BEGIN COLLECTION
M  V30 MDLV30/STEABS ATOMS=(1 11)
M  V30 END COLLECTION
M  V30 END CTAB
M  END
>  <Molecule ChEMBL ID>
CHEMBL3699402

>  <Smiles>
Cc1c(C)n(Cc2ccc(-c3ccccc3C(=O)O)cc2)c2ccc(C(=O)N[C@@H](C)c3ccc(S(C)(=O)=O)cc3)cc12

>  <IC50_nM>
636

>  <Assay Description>
Lanthascreen Competitive Binding Assay: The assay was performed according to manufacturer protocol. A mixture of nM GST-PPARG-LBD, 5 nM Tb-GST-antibody, 5 nM Fluormone Pan-PPAR Green, and serial dilutions of the experimental compound, beginning at 10 ׬M downwards, was added to wells of black 384-well low-volume plates (Greiner) to a total volume of 18 ׬L. All dilutions were made in TR-FRET assay buffer C. DMSO at 2% final concentration was used as a no-ligand control. Experiment was performed in triplicate, and incubated for 2 hours in the dark prior to assay read in Perkin Elmer ViewLux ultra HTS microplate reader. FRET signal was measured by excitation at 340 nm and emission at 520 nm for fluorescein and 490 nm for terbium. Fold change over DMSO was calculated using GraphPad Prism Software (La Jolla, Calif.) by calculating 520 nm/490 nm ratio. Graphs were plotted as fold change of FRET signal for compound treatment over DMSO-only control.

$$$$
CHEMBL118251
Actelion Java MolfileCreator 2.0

  0  0  0  0  0  0              0 V3000
M  V30 BEGIN CTAB
M  V30 COUNTS 34 37 0 0 0
M  V30 BEGIN ATOM
M  V30 1 O 9.2836 2.1159 0.0 0
M  V30 2 C 8.8769 1.2024 0.0 0
M  V30 3 O 7.8987 0.9945 0.0 0
M  V30 4 N 9.3769 0.3364 0.0 0
M  V30 5 C 7.7942 0.0 0.0 0 CFG=1
M  V30 6 C 8.7077 -0.4067 0.0 0
M  V30 7 C 6.9282 -0.5 0.0 0
M  V30 8 O 8.9156 -1.3848 0.0 0
M  V30 9 C 6.0621 0.0 0.0 0
M  V30 10 C 6.9282 -1.5 0.0 0
M  V30 11 C 5.1961 -0.5 0.0 0
M  V30 12 C 6.0621 -2.0 0.0 0
M  V30 13 O 4.3301 0.0 0.0 0
M  V30 14 C 5.1961 -1.5 0.0 0
M  V30 15 C 3.4641 -0.5 0.0 0
M  V30 16 C 2.598 0.0 0.0 0
M  V30 17 C 1.732 -0.5 0.0 0
M  V30 18 O 0.866 0.0 0.0 0
M  V30 19 C 0.0 -0.5 0.0 0
M  V30 20 C -0.866 0.0 0.0 0
M  V30 21 C 0.0 -1.4999 0.0 0
M  V30 22 C -1.732 -0.4999 0.0 0
M  V30 23 C -0.866 1.0 0.0 0
M  V30 24 C -0.866 -1.9999 0.0 0
M  V30 25 C -1.732 -1.4999 0.0 0
M  V30 26 C 0.0 1.5 0.0 0
M  V30 27 C -2.598 -1.9999 0.0 0
M  V30 28 C 0.0 2.5 0.0 0
M  V30 29 C -3.4243 -1.4366 0.0 0
M  V30 30 C -2.5233 -2.9972 0.0 0
M  V30 31 C -4.3798 -1.7314 0.0 0
M  V30 32 C -3.2563 -3.6773 0.0 0
M  V30 33 C -4.7452 -2.6623 0.0 0
M  V30 34 C -4.2452 -3.5283 0.0 0
M  V30 END ATOM
M  V30 BEGIN BOND
M  V30 1 2 1 2
M  V30 2 1 2 3
M  V30 3 1 2 4
M  V30 4 1 3 5
M  V30 5 1 4 6
M  V30 6 1 5 7 CFG=1
M  V30 7 2 6 8
M  V30 8 2 7 9
M  V30 9 1 7 10
M  V30 10 1 9 11
M  V30 11 2 10 12
M  V30 12 1 11 13
M  V30 13 2 11 14
M  V30 14 1 13 15
M  V30 15 1 15 16
M  V30 16 1 16 17
M  V30 17 1 17 18
M  V30 18 1 18 19
M  V30 19 2 19 20
M  V30 20 1 19 21
M  V30 21 1 20 22
M  V30 22 1 20 23
M  V30 23 2 21 24
M  V30 24 2 22 25
M  V30 25 1 23 26
M  V30 26 1 25 27
M  V30 27 1 26 28
M  V30 28 1 27 29
M  V30 29 1 27 30
M  V30 30 1 29 31
M  V30 31 1 30 32
M  V30 32 1 31 33
M  V30 33 1 32 34
M  V30 34 1 5 6
M  V30 35 1 12 14
M  V30 36 1 24 25
M  V30 37 1 33 34
M  V30 END BOND
M  V30 BEGIN COLLECTION
M  V30 MDLV30/STERAC1 ATOMS=(1 5)
M  V30 END COLLECTION
M  V30 END CTAB
M  END
>  <Molecule ChEMBL ID>
CHEMBL118251

>  <Smiles>
CCCc1cc(C2CCCCCC2)ccc1OCCCOc1cccc(C2OC(=O)NC2=O)c1

>  <IC50_nM>
640

>  <Assay Description>
In vitro binding affinity against human peroxisome proliferator activated receptor gamma

$$$$
CHEMBL1783054
Actelion Java MolfileCreator 2.0

  0  0  0  0  0  0              0 V3000
M  V30 BEGIN CTAB
M  V30 COUNTS 34 37 0 0 0
M  V30 BEGIN ATOM
M  V30 1 O 9.2836 2.1159 0.0 0
M  V30 2 C 8.8769 1.2024 0.0 0
M  V30 3 O 7.8987 0.9945 0.0 0
M  V30 4 N 9.3769 0.3364 0.0 0
M  V30 5 C 7.7942 0.0 0.0 0 CFG=2
M  V30 6 C 8.7077 -0.4067 0.0 0
M  V30 7 C 6.9282 -0.5 0.0 0
M  V30 8 O 8.9156 -1.3848 0.0 0
M  V30 9 C 6.0621 0.0 0.0 0
M  V30 10 C 6.9282 -1.5 0.0 0
M  V30 11 C 5.1961 -0.5 0.0 0
M  V30 12 C 6.0621 -2.0 0.0 0
M  V30 13 O 4.3301 0.0 0.0 0
M  V30 14 C 5.1961 -1.5 0.0 0
M  V30 15 C 3.4641 -0.5 0.0 0
M  V30 16 C 2.598 0.0 0.0 0
M  V30 17 C 1.732 -0.5 0.0 0
M  V30 18 O 0.866 0.0 0.0 0
M  V30 19 C 0.0 -0.5 0.0 0
M  V30 20 C -0.866 0.0 0.0 0
M  V30 21 C 0.0 -1.4999 0.0 0
M  V30 22 C -1.732 -0.4999 0.0 0
M  V30 23 C -0.866 1.0 0.0 0
M  V30 24 C -0.866 -1.9999 0.0 0
M  V30 25 C -1.732 -1.4999 0.0 0
M  V30 26 C 0.0 1.5 0.0 0
M  V30 27 C -2.598 -1.9999 0.0 0
M  V30 28 C 0.0 2.5 0.0 0
M  V30 29 C -3.4243 -1.4366 0.0 0
M  V30 30 C -2.5233 -2.9972 0.0 0
M  V30 31 C -4.3798 -1.7314 0.0 0
M  V30 32 C -3.2563 -3.6773 0.0 0
M  V30 33 C -4.7452 -2.6623 0.0 0
M  V30 34 C -4.2452 -3.5283 0.0 0
M  V30 END ATOM
M  V30 BEGIN BOND
M  V30 1 2 1 2
M  V30 2 1 2 3
M  V30 3 1 2 4
M  V30 4 1 3 5
M  V30 5 1 4 6
M  V30 6 1 5 7 CFG=3
M  V30 7 2 6 8
M  V30 8 2 7 9
M  V30 9 1 7 10
M  V30 10 1 9 11
M  V30 11 2 10 12
M  V30 12 1 11 13
M  V30 13 2 11 14
M  V30 14 1 13 15
M  V30 15 1 15 16
M  V30 16 1 16 17
M  V30 17 1 17 18
M  V30 18 1 18 19
M  V30 19 2 19 20
M  V30 20 1 19 21
M  V30 21 1 20 22
M  V30 22 1 20 23
M  V30 23 2 21 24
M  V30 24 2 22 25
M  V30 25 1 23 26
M  V30 26 1 25 27
M  V30 27 1 26 28
M  V30 28 1 27 29
M  V30 29 1 27 30
M  V30 30 1 29 31
M  V30 31 1 30 32
M  V30 32 1 31 33
M  V30 33 1 32 34
M  V30 34 1 5 6
M  V30 35 1 12 14
M  V30 36 1 24 25
M  V30 37 1 33 34
M  V30 END BOND
M  V30 BEGIN COLLECTION
M  V30 MDLV30/STEABS ATOMS=(1 5)
M  V30 END COLLECTION
M  V30 END CTAB
M  END
>  <Molecule ChEMBL ID>
CHEMBL1783054

>  <Smiles>
CCCc1cc(C2CCCCCC2)ccc1OCCCOc1cccc([C@@H]2OC(=O)NC2=O)c1

>  <IC50_nM>
640

>  <Assay Description>
Displacement of radio-labeled full agonist from PPARgamma receptor

$$$$
CHEMBL370074
Actelion Java MolfileCreator 2.0

  0  0  0  0  0  0              0 V3000
M  V30 BEGIN CTAB
M  V30 COUNTS 41 45 0 0 0
M  V30 BEGIN ATOM
M  V30 1 Cl 6.9905 -6.3351 0.0 0
M  V30 2 C 7.2995 -5.3841 0.0 0
M  V30 3 C 8.2777 -5.1762 0.0 0
M  V30 4 C 6.6304 -4.6409 0.0 0
M  V30 5 C 8.5867 -4.2251 0.0 0
M  V30 6 C 6.9394 -3.6899 0.0 0
M  V30 7 O 9.5002 -3.8184 0.0 0
M  V30 8 C 7.9176 -3.482 0.0 0
M  V30 9 N 9.3957 -2.8238 0.0 0
M  V30 10 C 8.4176 -2.6159 0.0 0
M  V30 11 N 8.0108 -1.7024 0.0 0
M  V30 12 C 8.5108 -0.8364 0.0 0
M  V30 13 C 7.0327 -1.4945 0.0 0
M  V30 14 C 7.8417 -0.0932 0.0 0
M  V30 15 C 9.489 -0.6284 0.0 0
M  V30 16 C 6.9282 -0.5 0.0 0
M  V30 17 C 6.2895 -2.1636 0.0 0
M  V30 18 C 8.1507 0.8577 0.0 0
M  V30 19 C 9.798 0.3225 0.0 0
M  V30 20 O 6.0621 0.0 0.0 0
M  V30 21 C 9.1289 1.0657 0.0 0
M  V30 22 C 5.1961 -0.5 0.0 0
M  V30 23 O 9.4379 2.0167 0.0 0
M  V30 24 C 4.3301 0.0 0.0 0
M  V30 25 C 5.1961 -1.4999 0.0 0
M  V30 26 C 8.7687 2.7599 0.0 0
M  V30 27 C 3.4641 -0.5 0.0 0
M  V30 28 C 4.3301 0.9999 0.0 0
M  V30 29 C 4.3301 -1.9999 0.0 0
M  V30 30 F 8.0256 2.0907 0.0 0
M  V30 31 F 8.0996 3.503 0.0 0
M  V30 32 F 9.5119 3.429 0.0 0
M  V30 33 O 2.598 0.0 0.0 0
M  V30 34 C 3.4641 -1.4999 0.0 0
M  V30 35 C 5.1961 1.4999 0.0 0
M  V30 36 C 1.732 -0.5 0.0 0 CFG=2
M  V30 37 C 5.1961 2.4999 0.0 0
M  V30 38 C 0.866 0.0 0.0 0
M  V30 39 C 1.732 -1.5 0.0 0
M  V30 40 O 0.866 1.0 0.0 0
M  V30 41 O 0.0 -0.5 0.0 0
M  V30 END ATOM
M  V30 BEGIN BOND
M  V30 1 1 1 2
M  V30 2 2 2 3
M  V30 3 1 2 4
M  V30 4 1 3 5
M  V30 5 2 4 6
M  V30 6 1 5 7
M  V30 7 2 5 8
M  V30 8 1 7 9
M  V30 9 1 8 10
M  V30 10 1 10 11
M  V30 11 1 11 12
M  V30 12 1 11 13
M  V30 13 2 12 14
M  V30 14 1 12 15
M  V30 15 2 13 16
M  V30 16 1 13 17
M  V30 17 1 14 18
M  V30 18 2 15 19
M  V30 19 1 16 20
M  V30 20 2 18 21
M  V30 21 1 20 22
M  V30 22 1 21 23
M  V30 23 2 22 24
M  V30 24 1 22 25
M  V30 25 1 23 26
M  V30 26 1 24 27
M  V30 27 1 24 28
M  V30 28 2 25 29
M  V30 29 1 26 30
M  V30 30 1 26 31
M  V30 31 1 26 32
M  V30 32 1 27 33
M  V30 33 2 27 34
M  V30 34 1 28 35
M  V30 35 1 33 36
M  V30 36 1 35 37
M  V30 37 1 36 38
M  V30 38 1 36 39 CFG=1
M  V30 39 2 38 40
M  V30 40 1 38 41
M  V30 41 1 6 8
M  V30 42 2 9 10
M  V30 43 1 14 16
M  V30 44 1 19 21
M  V30 45 1 29 34
M  V30 END BOND
M  V30 BEGIN COLLECTION
M  V30 MDLV30/STEABS ATOMS=(1 36)
M  V30 END COLLECTION
M  V30 END CTAB
M  END
>  <Molecule ChEMBL ID>
CHEMBL370074

>  <Smiles>
CCCc1c(Oc2c(C)n(-c3noc4cc(Cl)ccc34)c3ccc(OC(F)(F)F)cc23)cccc1O[C@@H](C)C(=O)O

>  <IC50_nM>
641

>  <Assay Description>
Inhibition of human peroxisome proliferator activated receptor gamma binding

$$$$
CHEMBL3695804
Actelion Java MolfileCreator 2.0

  0  0  0  0  0  0              0 V3000
M  V30 BEGIN CTAB
M  V30 COUNTS 39 43 0 0 0
M  V30 BEGIN ATOM
M  V30 1 O 6.0621 -3.0 0.0 0
M  V30 2 N 6.0621 -1.9999 0.0 0 CHG=1
M  V30 3 O 6.9282 -1.5 0.0 0 CHG=-1
M  V30 4 C 5.1961 -1.4999 0.0 0
M  V30 5 C 5.1961 -0.5 0.0 0
M  V30 6 C 4.3301 -1.9999 0.0 0
M  V30 7 C 4.3301 0.0 0.0 0
M  V30 8 C 3.4641 -1.5 0.0 0
M  V30 9 C 3.4641 -0.5 0.0 0
M  V30 10 C 2.598 0.0 0.0 0 CFG=1
M  V30 11 N 1.732 -0.5 0.0 0
M  V30 12 C 2.598 1.0 0.0 0
M  V30 13 C 0.866 0.0 0.0 0
M  V30 14 O 0.866 1.0 0.0 0
M  V30 15 C 0.0 -0.5 0.0 0
M  V30 16 C 0.0 -1.4999 0.0 0
M  V30 17 C -0.866 0.0 0.0 0
M  V30 18 C -0.866 -1.9999 0.0 0
M  V30 19 C -1.732 -0.4999 0.0 0
M  V30 20 C -1.732 -1.4999 0.0 0
M  V30 21 C -1.0739 -2.9781 0.0 0
M  V30 22 N -2.4751 -2.1691 0.0 0
M  V30 23 C -2.0684 -3.0826 0.0 0
M  V30 24 C -3.4533 -1.9612 0.0 0
M  V30 25 C -4.1224 -2.7043 0.0 0
M  V30 26 C -5.1006 -2.4964 0.0 0
M  V30 27 C -3.8134 -3.6554 0.0 0
M  V30 28 C -5.7697 -3.2395 0.0 0
M  V30 29 C -4.4825 -4.3985 0.0 0
M  V30 30 C -5.4607 -4.1906 0.0 0
M  V30 31 C -6.1298 -4.9337 0.0 0
M  V30 32 C -7.108 -4.7258 0.0 0
M  V30 33 C -5.8208 -5.8848 0.0 0
M  V30 34 C -7.417 -3.7748 0.0 0
M  V30 35 C -7.7771 -5.469 0.0 0
M  V30 36 C -6.4899 -6.6279 0.0 0
M  V30 37 O -6.7478 -3.0316 0.0 0
M  V30 38 O -8.3951 -3.5669 0.0 0
M  V30 39 C -7.4681 -6.42 0.0 0
M  V30 END ATOM
M  V30 BEGIN BOND
M  V30 1 2 1 2
M  V30 2 1 2 3
M  V30 3 1 2 4
M  V30 4 2 4 5
M  V30 5 1 4 6
M  V30 6 1 5 7
M  V30 7 2 6 8
M  V30 8 2 7 9
M  V30 9 1 9 10
M  V30 10 1 10 11
M  V30 11 1 10 12 CFG=1
M  V30 12 1 11 13
M  V30 13 2 13 14
M  V30 14 1 13 15
M  V30 15 2 15 16
M  V30 16 1 15 17
M  V30 17 1 16 18
M  V30 18 2 17 19
M  V30 19 2 18 20
M  V30 20 1 18 21
M  V30 21 1 20 22
M  V30 22 2 21 23
M  V30 23 1 22 24
M  V30 24 1 24 25
M  V30 25 2 25 26
M  V30 26 1 25 27
M  V30 27 1 26 28
M  V30 28 2 27 29
M  V30 29 2 28 30
M  V30 30 1 30 31
M  V30 31 2 31 32
M  V30 32 1 31 33
M  V30 33 1 32 34
M  V30 34 1 32 35
M  V30 35 2 33 36
M  V30 36 2 34 37
M  V30 37 1 34 38
M  V30 38 2 35 39
M  V30 39 1 8 9
M  V30 40 1 19 20
M  V30 41 1 22 23
M  V30 42 1 29 30
M  V30 43 1 36 39
M  V30 END BOND
M  V30 BEGIN COLLECTION
M  V30 MDLV30/STEABS ATOMS=(1 10)
M  V30 END COLLECTION
M  V30 END CTAB
M  END
>  <Molecule ChEMBL ID>
CHEMBL3695804

>  <Smiles>
C[C@H](NC(=O)c1ccc2c(ccn2Cc2ccc(-c3ccccc3C(=O)O)cc2)c1)c1ccc([N+](=O)[O-])cc1

>  <IC50_nM>
646

>  <Assay Description>
Lanthascreen Competitive Binding Assay: The assay was performed according to manufacturer protocol. A mixture of nM GST-PPARG-LBD, 5 nM Tb-GST-antibody, 5 nM Fluormone Pan-PPAR Green, and serial dilutions of the experimental compound, beginning at 10 ׬M downwards, was added to wells of black 384-well low-volume plates (Greiner) to a total volume of 18 ׬L. All dilutions were made in TR-FRET assay buffer C. DMSO at 2% final concentration was used as a no-ligand control. Experiment was performed in triplicate, and incubated for 2 hours in the dark prior to assay read in Perkin Elmer ViewLux ultra HTS microplate reader. FRET signal was measured by excitation at 340 nm and emission at 520 nm for fluorescein and 490 nm for terbium. Fold change over DMSO was calculated using GraphPad Prism Software (La Jolla, Calif.) by calculating 520 nm/490 nm ratio. Graphs were plotted as fold change of FRET signal for compound treatment over DMSO-only control.

$$$$
CHEMBL2031956
Actelion Java MolfileCreator 2.0

  0  0  0  0  0  0              0 V3000
M  V30 BEGIN CTAB
M  V30 COUNTS 25 26 0 0 0
M  V30 BEGIN ATOM
M  V30 1 O 17.9624 -5.7546 0.0 0
M  V30 2 C 16.9587 -4.6398 0.0 0
M  V30 3 C 17.2124 -7.0536 0.0 0
M  V30 4 C 15.5884 -5.25 0.0 0
M  V30 5 C 15.7452 -6.7417 0.0 0
M  V30 6 C 14.2894 -4.5 0.0 0
M  V30 7 C 14.2894 -3.0 0.0 0
M  V30 8 C 12.9903 -2.25 0.0 0
M  V30 9 C 12.9903 -0.75 0.0 0
M  V30 10 C 11.6913 -3.0 0.0 0
M  V30 11 C 11.6913 0.0 0.0 0
M  V30 12 C 10.3923 -2.25 0.0 0
M  V30 13 O 11.6913 1.4999 0.0 0
M  V30 14 C 10.3923 -0.75 0.0 0
M  V30 15 O 9.0932 -2.9999 0.0 0
M  V30 16 C 9.0932 0.0 0.0 0
M  V30 17 C 7.7942 -0.75 0.0 0
M  V30 18 C 6.4951 0.0 0.0 0
M  V30 19 C 5.1961 -0.75 0.0 0
M  V30 20 C 6.4951 1.5 0.0 0
M  V30 21 C 3.8971 0.0 0.0 0
M  V30 22 C 2.598 -0.75 0.0 0
M  V30 23 C 1.299 0.0 0.0 0
M  V30 24 C 1.299 1.5 0.0 0
M  V30 25 C 0.0 -0.75 0.0 0
M  V30 END ATOM
M  V30 BEGIN BOND
M  V30 1 1 1 2
M  V30 2 1 1 3
M  V30 3 2 2 4
M  V30 4 2 3 5
M  V30 5 1 4 6
M  V30 6 2 6 7
M  V30 7 1 7 8
M  V30 8 2 8 9
M  V30 9 1 8 10
M  V30 10 1 9 11
M  V30 11 2 10 12
M  V30 12 1 11 13
M  V30 13 2 11 14
M  V30 14 1 12 15
M  V30 15 1 14 16
M  V30 16 1 16 17
M  V30 17 2 17 18
M  V30 18 1 18 19
M  V30 19 1 18 20
M  V30 20 1 19 21
M  V30 21 1 21 22
M  V30 22 2 22 23
M  V30 23 1 23 24
M  V30 24 1 23 25
M  V30 25 1 4 5
M  V30 26 1 12 14
M  V30 END BOND
M  V30 END CTAB
M  END
>  <Molecule ChEMBL ID>
CHEMBL2031956

>  <Smiles>
CC(C)=CCC/C(C)=C/Cc1c(O)cc(/C=C/c2ccoc2)cc1O

>  <IC50_nM>
650

>  <Assay Description>
Binding affinity to GST-tagged human PPARgamma by TR-FRET analysis

$$$$
CHEMBL5074383
Actelion Java MolfileCreator 2.0

  0  0  0  0  0  0              0 V3000
M  V30 BEGIN CTAB
M  V30 COUNTS 39 43 0 0 0
M  V30 BEGIN ATOM
M  V30 1 S 9.0932 -4.5 0.0 0
M  V30 2 O 7.5933 -4.4999 0.0 0
M  V30 3 O 8.3433 -5.799 0.0 0
M  V30 4 C 10.3923 -5.25 0.0 0
M  V30 5 C 9.0932 -3.0 0.0 0
M  V30 6 C 11.1423 -6.549 0.0 0
M  V30 7 C 11.8923 -5.25 0.0 0
M  V30 8 C 7.7942 -2.25 0.0 0
M  V30 9 C 7.7942 -0.75 0.0 0
M  V30 10 C 6.4951 -3.0 0.0 0
M  V30 11 C 6.4951 0.0 0.0 0
M  V30 12 C 5.1961 -2.25 0.0 0
M  V30 13 C 5.1961 -0.75 0.0 0
M  V30 14 C 6.4951 1.5 0.0 0
M  V30 15 C 3.8971 0.0 0.0 0
M  V30 16 F 4.9951 1.5 0.0 0
M  V30 17 F 6.4951 3.0 0.0 0
M  V30 18 F 7.9951 1.5 0.0 0
M  V30 19 N 2.598 -0.75 0.0 0
M  V30 20 C 1.299 0.0 0.0 0
M  V30 21 O 1.299 1.5 0.0 0
M  V30 22 C 0.0 -0.75 0.0 0
M  V30 23 C 0.0 -2.25 0.0 0
M  V30 24 C -1.299 0.0 0.0 0
M  V30 25 C -1.299 -3.0 0.0 0
M  V30 26 C -2.598 -0.75 0.0 0
M  V30 27 C -2.598 -2.25 0.0 0
M  V30 28 C -1.6109 -4.4672 0.0 0
M  V30 29 N -3.7127 -3.2536 0.0 0
M  V30 30 C -3.1026 -4.624 0.0 0
M  V30 31 C -5.18 -2.9418 0.0 0
M  V30 32 C -3.8526 -5.923 0.0 0
M  V30 33 C -6.1837 -4.0565 0.0 0
M  V30 34 C -7.6509 -3.7446 0.0 0
M  V30 35 C -5.7201 -5.4831 0.0 0
M  V30 36 C -8.6546 -4.8594 0.0 0
M  V30 37 C -6.7238 -6.5978 0.0 0
M  V30 38 F -10.1218 -4.5475 0.0 0
M  V30 39 C -8.1911 -6.2859 0.0 0
M  V30 END ATOM
M  V30 BEGIN BOND
M  V30 1 2 1 2
M  V30 2 2 1 3
M  V30 3 1 1 4
M  V30 4 1 1 5
M  V30 5 1 4 6
M  V30 6 1 4 7
M  V30 7 1 5 8
M  V30 8 2 8 9
M  V30 9 1 8 10
M  V30 10 1 9 11
M  V30 11 2 10 12
M  V30 12 2 11 13
M  V30 13 1 11 14
M  V30 14 1 13 15
M  V30 15 1 14 16
M  V30 16 1 14 17
M  V30 17 1 14 18
M  V30 18 1 15 19
M  V30 19 1 19 20
M  V30 20 2 20 21
M  V30 21 1 20 22
M  V30 22 2 22 23
M  V30 23 1 22 24
M  V30 24 1 23 25
M  V30 25 2 24 26
M  V30 26 2 25 27
M  V30 27 1 25 28
M  V30 28 1 27 29
M  V30 29 2 28 30
M  V30 30 1 29 31
M  V30 31 1 30 32
M  V30 32 1 31 33
M  V30 33 2 33 34
M  V30 34 1 33 35
M  V30 35 1 34 36
M  V30 36 2 35 37
M  V30 37 1 36 38
M  V30 38 2 36 39
M  V30 39 1 6 7
M  V30 40 1 12 13
M  V30 41 1 26 27
M  V30 42 1 29 30
M  V30 43 1 37 39
M  V30 END BOND
M  V30 END CTAB
M  END
>  <Molecule ChEMBL ID>
CHEMBL5074383

>  <Smiles>
Cc1cc2cc(C(=O)NCc3ccc(CS(=O)(=O)C4CC4)cc3C(F)(F)F)ccc2n1Cc1cccc(F)c1

>  <IC50_nM>
650

>  <Assay Description>
Partial agonist activity at recombinant sGSF-PPARgamma (unknown origin) assessed as reduction in rosiglitazone induced CBP-1 recruitment incubated for 1 hr by HTRF competitive assay

$$$$
CHEMBL3598148
Actelion Java MolfileCreator 2.0

  0  0  0  0  0  0              0 V3000
M  V30 BEGIN CTAB
M  V30 COUNTS 32 35 0 0 0
M  V30 BEGIN ATOM
M  V30 1 Cl -0.866 0.9999 0.0 0
M  V30 2 C 0.0 1.4999 0.0 0
M  V30 3 C 0.866 0.9999 0.0 0
M  V30 4 C 0.0 2.4999 0.0 0
M  V30 5 C 1.732 1.5 0.0 0
M  V30 6 C 0.866 0.0 0.0 0
M  V30 7 C 0.866 3.0 0.0 0
M  V30 8 C 1.732 2.4999 0.0 0
M  V30 9 C 2.598 1.0 0.0 0
M  V30 10 O 1.732 -0.5 0.0 0
M  V30 11 C 0.0 -0.5 0.0 0
M  V30 12 F 3.098 1.866 0.0 0
M  V30 13 F 3.4641 0.5 0.0 0
M  V30 14 F 2.098 0.1339 0.0 0
M  V30 15 N -0.9135 -0.0932 0.0 0
M  V30 16 N -0.1045 -1.4945 0.0 0
M  V30 17 C -1.5826 -0.8364 0.0 0
M  V30 18 C -1.0826 -1.7024 0.0 0
M  V30 19 C 0.5646 -2.2376 0.0 0
M  V30 20 C -2.5771 -0.7318 0.0 0
M  V30 21 C -1.3916 -2.6534 0.0 0
M  V30 22 C 0.2555 -3.1887 0.0 0
M  V30 23 C -2.9839 0.1816 0.0 0
M  V30 24 C -3.1649 -1.5408 0.0 0
M  V30 25 C -0.7225 -3.3966 0.0 0
M  V30 26 C -3.9784 0.2861 0.0 0
M  V30 27 C -4.1595 -1.4363 0.0 0
M  V30 28 O -4.3851 1.1997 0.0 0
M  V30 29 C -4.5662 -0.5228 0.0 0
M  V30 30 C -5.5607 -0.4182 0.0 0
M  V30 31 O -5.9675 0.4952 0.0 0
M  V30 32 O -6.1485 -1.2273 0.0 0
M  V30 END ATOM
M  V30 BEGIN BOND
M  V30 1 1 1 2
M  V30 2 2 2 3
M  V30 3 1 2 4
M  V30 4 1 3 5
M  V30 5 1 3 6
M  V30 6 2 4 7
M  V30 7 2 5 8
M  V30 8 1 5 9
M  V30 9 2 6 10
M  V30 10 1 6 11
M  V30 11 1 9 12
M  V30 12 1 9 13
M  V30 13 1 9 14
M  V30 14 2 11 15
M  V30 15 1 11 16
M  V30 16 1 15 17
M  V30 17 1 16 18
M  V30 18 1 16 19
M  V30 19 1 17 20
M  V30 20 1 18 21
M  V30 21 2 19 22
M  V30 22 2 20 23
M  V30 23 1 20 24
M  V30 24 2 21 25
M  V30 25 1 23 26
M  V30 26 2 24 27
M  V30 27 1 26 28
M  V30 28 2 26 29
M  V30 29 1 29 30
M  V30 30 2 30 31
M  V30 31 1 30 32
M  V30 32 1 7 8
M  V30 33 2 17 18
M  V30 34 1 22 25
M  V30 35 1 27 29
M  V30 END BOND
M  V30 END CTAB
M  END
>  <Molecule ChEMBL ID>
CHEMBL3598148

>  <Smiles>
O=C(O)c1ccc(-c2nc(C(=O)c3c(Cl)cccc3C(F)(F)F)n3ccccc23)cc1O

>  <IC50_nM>
650

>  <Assay Description>
Displacement of fluormone PPARgamma green from GST-tagged human PPARgamma-LBD after 2 hrs by fluorescence polarization assay

$$$$
CHEMBL401534
Actelion Java MolfileCreator 2.0

  0  0  0  0  0  0              0 V3000
M  V30 BEGIN CTAB
M  V30 COUNTS 41 45 0 0 0
M  V30 BEGIN ATOM
M  V30 1 O 3.4641 2.4999 0.0 0
M  V30 2 C 4.3301 3.0 0.0 0
M  V30 3 O 4.3301 4.0 0.0 0
M  V30 4 N 5.1961 2.4999 0.0 0
M  V30 5 C 5.1961 4.5 0.0 0
M  V30 6 C 5.1961 1.5 0.0 0
M  V30 7 C 6.0621 2.9999 0.0 0
M  V30 8 C 5.1961 5.4999 0.0 0
M  V30 9 C 6.0621 1.0 0.0 0
M  V30 10 C 6.9282 2.4999 0.0 0
M  V30 11 C 6.0621 5.9999 0.0 0
M  V30 12 C 4.3301 6.0 0.0 0
M  V30 13 C 6.9282 1.5 0.0 0 CFG=1
M  V30 14 C 6.0621 0.0 0.0 0
M  V30 15 C 6.0621 6.9999 0.0 0
M  V30 16 C 4.3301 7.0 0.0 0
M  V30 17 C 7.7942 0.9999 0.0 0
M  V30 18 C 5.1961 -0.5 0.0 0
M  V30 19 C 5.1961 7.4999 0.0 0
M  V30 20 O 7.7942 0.0 0.0 0
M  V30 21 O 8.6602 1.4999 0.0 0
M  V30 22 C 4.3301 0.0 0.0 0
M  V30 23 C 5.1961 -1.4999 0.0 0
M  V30 24 C 3.4641 -0.5 0.0 0
M  V30 25 C 4.3301 -1.9999 0.0 0
M  V30 26 O 2.598 0.0 0.0 0
M  V30 27 C 3.4641 -1.4999 0.0 0
M  V30 28 C 1.732 -0.5 0.0 0
M  V30 29 C 0.866 0.0 0.0 0
M  V30 30 C 0.0 -0.5 0.0 0
M  V30 31 N -0.9135 -0.0932 0.0 0
M  V30 32 C -0.1045 -1.4945 0.0 0
M  V30 33 C -1.5826 -0.8364 0.0 0
M  V30 34 O -1.0826 -1.7024 0.0 0
M  V30 35 C 0.6386 -2.1636 0.0 0
M  V30 36 C -2.5771 -0.7318 0.0 0
M  V30 37 C -2.9839 0.1816 0.0 0
M  V30 38 C -3.1649 -1.5408 0.0 0
M  V30 39 C -3.9784 0.2861 0.0 0
M  V30 40 C -4.1595 -1.4363 0.0 0
M  V30 41 C -4.5662 -0.5228 0.0 0
M  V30 END ATOM
M  V30 BEGIN BOND
M  V30 1 2 1 2
M  V30 2 1 2 3
M  V30 3 1 2 4
M  V30 4 1 3 5
M  V30 5 1 4 6
M  V30 6 1 4 7
M  V30 7 1 5 8
M  V30 8 2 6 9
M  V30 9 1 7 10
M  V30 10 2 8 11
M  V30 11 1 8 12
M  V30 12 1 9 13
M  V30 13 1 9 14
M  V30 14 1 11 15
M  V30 15 2 12 16
M  V30 16 1 13 17 CFG=1
M  V30 17 1 14 18
M  V30 18 2 15 19
M  V30 19 2 17 20
M  V30 20 1 17 21
M  V30 21 2 18 22
M  V30 22 1 18 23
M  V30 23 1 22 24
M  V30 24 2 23 25
M  V30 25 1 24 26
M  V30 26 2 24 27
M  V30 27 1 26 28
M  V30 28 1 28 29
M  V30 29 1 29 30
M  V30 30 1 30 31
M  V30 31 2 30 32
M  V30 32 2 31 33
M  V30 33 1 32 34
M  V30 34 1 32 35
M  V30 35 1 33 36
M  V30 36 2 36 37
M  V30 37 1 36 38
M  V30 38 1 37 39
M  V30 39 2 38 40
M  V30 40 2 39 41
M  V30 41 1 10 13
M  V30 42 1 16 19
M  V30 43 1 25 27
M  V30 44 1 33 34
M  V30 45 1 40 41
M  V30 END BOND
M  V30 BEGIN COLLECTION
M  V30 MDLV30/STERAC1 ATOMS=(1 13)
M  V30 END COLLECTION
M  V30 END CTAB
M  END
>  <Molecule ChEMBL ID>
CHEMBL401534

>  <Smiles>
Cc1oc(-c2ccccc2)nc1CCOc1cccc(CC2=CN(C(=O)OCc3ccccc3)CCC2C(=O)O)c1

>  <IC50_nM>
654

>  <Assay Description>
Binding affinity at human PPARalpha by fluorescence polarization

$$$$
CHEMBL3695772
Actelion Java MolfileCreator 2.0

  0  0  0  0  0  0              0 V3000
M  V30 BEGIN CTAB
M  V30 COUNTS 41 45 0 0 0
M  V30 BEGIN ATOM
M  V30 1 O 11.8592 -3.5669 0.0 0
M  V30 2 C 10.8811 -3.7748 0.0 0
M  V30 3 O 10.212 -3.0316 0.0 0
M  V30 4 C 10.5721 -4.7258 0.0 0
M  V30 5 C 9.5939 -4.9337 0.0 0
M  V30 6 C 11.2412 -5.469 0.0 0
M  V30 7 C 8.9248 -4.1906 0.0 0
M  V30 8 C 9.2849 -5.8848 0.0 0
M  V30 9 C 10.9322 -6.42 0.0 0
M  V30 10 C 9.2338 -3.2395 0.0 0
M  V30 11 C 7.9466 -4.3985 0.0 0
M  V30 12 C 9.954 -6.6279 0.0 0
M  V30 13 C 8.5647 -2.4964 0.0 0
M  V30 14 C 7.2775 -3.6554 0.0 0
M  V30 15 C 7.5865 -2.7043 0.0 0
M  V30 16 C 6.9174 -1.9612 0.0 0
M  V30 17 N 5.9392 -2.1691 0.0 0
M  V30 18 C 5.1961 -1.4999 0.0 0
M  V30 19 C 5.5325 -3.0826 0.0 0
M  V30 20 C 4.3301 -1.9999 0.0 0
M  V30 21 C 5.1961 -0.4999 0.0 0
M  V30 22 C 4.538 -2.9781 0.0 0
M  V30 23 C 6.0325 -3.9487 0.0 0
M  V30 24 C 3.4641 -1.5 0.0 0
M  V30 25 C 4.3301 0.0 0.0 0
M  V30 26 C 3.8689 -3.7212 0.0 0
M  V30 27 C 3.4641 -0.5 0.0 0
M  V30 28 C 2.598 0.0 0.0 0
M  V30 29 O 2.598 1.0 0.0 0
M  V30 30 N 1.732 -0.5 0.0 0
M  V30 31 C 0.866 0.0 0.0 0
M  V30 32 C 0.0 -0.5 0.0 0
M  V30 33 C -0.866 0.0 0.0 0
M  V30 34 C 0.0 -1.4999 0.0 0
M  V30 35 C -1.732 -0.4999 0.0 0
M  V30 36 C -0.866 -1.9999 0.0 0
M  V30 37 C -1.732 -1.4999 0.0 0
M  V30 38 C -2.598 -1.9999 0.0 0
M  V30 39 C -2.098 -2.866 0.0 0
M  V30 40 C -3.4641 -2.4999 0.0 0
M  V30 41 C -3.098 -1.1339 0.0 0
M  V30 END ATOM
M  V30 BEGIN BOND
M  V30 1 2 1 2
M  V30 2 1 2 3
M  V30 3 1 2 4
M  V30 4 2 4 5
M  V30 5 1 4 6
M  V30 6 1 5 7
M  V30 7 1 5 8
M  V30 8 2 6 9
M  V30 9 2 7 10
M  V30 10 1 7 11
M  V30 11 2 8 12
M  V30 12 1 10 13
M  V30 13 2 11 14
M  V30 14 2 13 15
M  V30 15 1 15 16
M  V30 16 1 16 17
M  V30 17 1 17 18
M  V30 18 1 17 19
M  V30 19 2 18 20
M  V30 20 1 18 21
M  V30 21 2 19 22
M  V30 22 1 19 23
M  V30 23 1 20 24
M  V30 24 2 21 25
M  V30 25 1 22 26
M  V30 26 2 24 27
M  V30 27 1 27 28
M  V30 28 2 28 29
M  V30 29 1 28 30
M  V30 30 1 30 31
M  V30 31 1 31 32
M  V30 32 2 32 33
M  V30 33 1 32 34
M  V30 34 1 33 35
M  V30 35 2 34 36
M  V30 36 2 35 37
M  V30 37 1 37 38
M  V30 38 1 38 39
M  V30 39 1 38 40
M  V30 40 1 38 41
M  V30 41 1 9 12
M  V30 42 1 14 15
M  V30 43 1 20 22
M  V30 44 1 25 27
M  V30 45 1 36 37
M  V30 END BOND
M  V30 END CTAB
M  END
>  <Molecule ChEMBL ID>
CHEMBL3695772

>  <Smiles>
Cc1c(C)n(Cc2ccc(-c3ccccc3C(=O)O)cc2)c2ccc(C(=O)NCc3ccc(C(C)(C)C)cc3)cc12

>  <IC50_nM>
667

>  <Assay Description>
Lanthascreen Competitive Binding Assay: The assay was performed according to manufacturer protocol. A mixture of nM GST-PPARG-LBD, 5 nM Tb-GST-antibody, 5 nM Fluormone Pan-PPAR Green, and serial dilutions of the experimental compound, beginning at 10 ׬M downwards, was added to wells of black 384-well low-volume plates (Greiner) to a total volume of 18 ׬L. All dilutions were made in TR-FRET assay buffer C. DMSO at 2% final concentration was used as a no-ligand control. Experiment was performed in triplicate, and incubated for 2 hours in the dark prior to assay read in Perkin Elmer ViewLux ultra HTS microplate reader. FRET signal was measured by excitation at 340 nm and emission at 520 nm for fluorescein and 490 nm for terbium. Fold change over DMSO was calculated using GraphPad Prism Software (La Jolla, Calif.) by calculating 520 nm/490 nm ratio. Graphs were plotted as fold change of FRET signal for compound treatment over DMSO-only control.

$$$$
CHEMBL3695772
Actelion Java MolfileCreator 2.0

  0  0  0  0  0  0              0 V3000
M  V30 BEGIN CTAB
M  V30 COUNTS 41 45 0 0 0
M  V30 BEGIN ATOM
M  V30 1 O 11.8592 -3.5669 0.0 0
M  V30 2 C 10.8811 -3.7748 0.0 0
M  V30 3 O 10.212 -3.0316 0.0 0
M  V30 4 C 10.5721 -4.7258 0.0 0
M  V30 5 C 9.5939 -4.9337 0.0 0
M  V30 6 C 11.2412 -5.469 0.0 0
M  V30 7 C 8.9248 -4.1906 0.0 0
M  V30 8 C 9.2849 -5.8848 0.0 0
M  V30 9 C 10.9322 -6.42 0.0 0
M  V30 10 C 9.2338 -3.2395 0.0 0
M  V30 11 C 7.9466 -4.3985 0.0 0
M  V30 12 C 9.954 -6.6279 0.0 0
M  V30 13 C 8.5647 -2.4964 0.0 0
M  V30 14 C 7.2775 -3.6554 0.0 0
M  V30 15 C 7.5865 -2.7043 0.0 0
M  V30 16 C 6.9174 -1.9612 0.0 0
M  V30 17 N 5.9392 -2.1691 0.0 0
M  V30 18 C 5.1961 -1.4999 0.0 0
M  V30 19 C 5.5325 -3.0826 0.0 0
M  V30 20 C 4.3301 -1.9999 0.0 0
M  V30 21 C 5.1961 -0.4999 0.0 0
M  V30 22 C 4.538 -2.9781 0.0 0
M  V30 23 C 6.0325 -3.9487 0.0 0
M  V30 24 C 3.4641 -1.5 0.0 0
M  V30 25 C 4.3301 0.0 0.0 0
M  V30 26 C 3.8689 -3.7212 0.0 0
M  V30 27 C 3.4641 -0.5 0.0 0
M  V30 28 C 2.598 0.0 0.0 0
M  V30 29 O 2.598 1.0 0.0 0
M  V30 30 N 1.732 -0.5 0.0 0
M  V30 31 C 0.866 0.0 0.0 0
M  V30 32 C 0.0 -0.5 0.0 0
M  V30 33 C -0.866 0.0 0.0 0
M  V30 34 C 0.0 -1.4999 0.0 0
M  V30 35 C -1.732 -0.4999 0.0 0
M  V30 36 C -0.866 -1.9999 0.0 0
M  V30 37 C -1.732 -1.4999 0.0 0
M  V30 38 C -2.598 -1.9999 0.0 0
M  V30 39 C -2.098 -2.866 0.0 0
M  V30 40 C -3.4641 -2.4999 0.0 0
M  V30 41 C -3.098 -1.1339 0.0 0
M  V30 END ATOM
M  V30 BEGIN BOND
M  V30 1 2 1 2
M  V30 2 1 2 3
M  V30 3 1 2 4
M  V30 4 2 4 5
M  V30 5 1 4 6
M  V30 6 1 5 7
M  V30 7 1 5 8
M  V30 8 2 6 9
M  V30 9 2 7 10
M  V30 10 1 7 11
M  V30 11 2 8 12
M  V30 12 1 10 13
M  V30 13 2 11 14
M  V30 14 2 13 15
M  V30 15 1 15 16
M  V30 16 1 16 17
M  V30 17 1 17 18
M  V30 18 1 17 19
M  V30 19 2 18 20
M  V30 20 1 18 21
M  V30 21 2 19 22
M  V30 22 1 19 23
M  V30 23 1 20 24
M  V30 24 2 21 25
M  V30 25 1 22 26
M  V30 26 2 24 27
M  V30 27 1 27 28
M  V30 28 2 28 29
M  V30 29 1 28 30
M  V30 30 1 30 31
M  V30 31 1 31 32
M  V30 32 2 32 33
M  V30 33 1 32 34
M  V30 34 1 33 35
M  V30 35 2 34 36
M  V30 36 2 35 37
M  V30 37 1 37 38
M  V30 38 1 38 39
M  V30 39 1 38 40
M  V30 40 1 38 41
M  V30 41 1 9 12
M  V30 42 1 14 15
M  V30 43 1 20 22
M  V30 44 1 25 27
M  V30 45 1 36 37
M  V30 END BOND
M  V30 END CTAB
M  END
>  <Molecule ChEMBL ID>
CHEMBL3695772

>  <Smiles>
Cc1c(C)n(Cc2ccc(-c3ccccc3C(=O)O)cc2)c2ccc(C(=O)NCc3ccc(C(C)(C)C)cc3)cc12

>  <IC50_nM>
667

>  <Assay Description>
Binding affinity to GST-tagged PPAR-gamma-LBD (unknown origin) after 2 hrs by Lantha screen assay using fluormone Pan-PPAR green probe

$$$$
CHEMBL474551
Actelion Java MolfileCreator 2.0

  0  0  0  0  0  0              0 V3000
M  V30 BEGIN CTAB
M  V30 COUNTS 35 39 0 0 0
M  V30 BEGIN ATOM
M  V30 1 O 6.4404 -2.054 0.0 0
M  V30 2 C 7.1836 -1.3848 0.0 0
M  V30 3 O 8.1346 -1.6939 0.0 0
M  V30 4 C 6.9757 -0.4067 0.0 0
M  V30 5 N 7.6448 0.3364 0.0 0
M  V30 6 C 6.0621 0.0 0.0 0
M  V30 7 N 7.1448 1.2024 0.0 0
M  V30 8 N 6.1667 0.9945 0.0 0
M  V30 9 C 5.1961 -0.5 0.0 0
M  V30 10 C 7.5515 2.1159 0.0 0
M  V30 11 C 4.3301 0.0 0.0 0
M  V30 12 C 5.1961 -1.4999 0.0 0
M  V30 13 C 8.5461 2.2205 0.0 0
M  V30 14 C 6.9638 2.9249 0.0 0
M  V30 15 C 3.4641 -0.5 0.0 0
M  V30 16 C 4.3301 -1.9999 0.0 0
M  V30 17 C 8.9528 3.134 0.0 0
M  V30 18 C 7.3705 3.8385 0.0 0
M  V30 19 O 2.598 0.0 0.0 0
M  V30 20 C 3.4641 -1.4999 0.0 0
M  V30 21 C 8.365 3.943 0.0 0
M  V30 22 C 1.732 -0.5 0.0 0
M  V30 23 C 0.866 0.0 0.0 0
M  V30 24 C 0.0 -0.5 0.0 0
M  V30 25 N -0.9135 -0.0932 0.0 0
M  V30 26 C -0.1045 -1.4945 0.0 0
M  V30 27 C -1.5826 -0.8364 0.0 0
M  V30 28 O -1.0826 -1.7024 0.0 0
M  V30 29 C 0.6386 -2.1636 0.0 0
M  V30 30 C -2.5771 -0.7318 0.0 0
M  V30 31 C -2.9839 0.1816 0.0 0
M  V30 32 C -3.1649 -1.5408 0.0 0
M  V30 33 C -3.9784 0.2861 0.0 0
M  V30 34 C -4.1595 -1.4363 0.0 0
M  V30 35 C -4.5662 -0.5228 0.0 0
M  V30 END ATOM
M  V30 BEGIN BOND
M  V30 1 2 1 2
M  V30 2 1 2 3
M  V30 3 1 2 4
M  V30 4 2 4 5
M  V30 5 1 4 6
M  V30 6 1 5 7
M  V30 7 2 6 8
M  V30 8 1 6 9
M  V30 9 1 7 10
M  V30 10 2 9 11
M  V30 11 1 9 12
M  V30 12 2 10 13
M  V30 13 1 10 14
M  V30 14 1 11 15
M  V30 15 2 12 16
M  V30 16 1 13 17
M  V30 17 2 14 18
M  V30 18 1 15 19
M  V30 19 2 15 20
M  V30 20 2 17 21
M  V30 21 1 19 22
M  V30 22 1 22 23
M  V30 23 1 23 24
M  V30 24 1 24 25
M  V30 25 2 24 26
M  V30 26 2 25 27
M  V30 27 1 26 28
M  V30 28 1 26 29
M  V30 29 1 27 30
M  V30 30 2 30 31
M  V30 31 1 30 32
M  V30 32 1 31 33
M  V30 33 2 32 34
M  V30 34 2 33 35
M  V30 35 1 7 8
M  V30 36 1 16 20
M  V30 37 1 18 21
M  V30 38 1 27 28
M  V30 39 1 34 35
M  V30 END BOND
M  V30 END CTAB
M  END
>  <Molecule ChEMBL ID>
CHEMBL474551

>  <Smiles>
Cc1oc(-c2ccccc2)nc1CCOc1cccc(-c2nn(-c3ccccc3)nc2C(=O)O)c1

>  <IC50_nM>
670

>  <Assay Description>
Binding affinity to PPARgamma by fluorescence polarization assay

$$$$
CHEMBL248906
Actelion Java MolfileCreator 2.0

  0  0  0  0  0  0              0 V3000
M  V30 BEGIN CTAB
M  V30 COUNTS 35 36 0 0 0
M  V30 BEGIN ATOM
M  V30 1 F 9.5262 1.0 0.0 0
M  V30 2 C 9.5262 0.0 0.0 0
M  V30 3 C 8.6602 -0.5 0.0 0
M  V30 4 C 10.3923 -0.4999 0.0 0
M  V30 5 N 7.7942 0.0 0.0 0
M  V30 6 C 8.6602 -1.5 0.0 0
M  V30 7 C 10.3923 -1.4999 0.0 0
M  V30 8 C 6.9282 -0.5 0.0 0
M  V30 9 C 9.5262 -1.9999 0.0 0
M  V30 10 F 11.2583 -1.9999 0.0 0
M  V30 11 O 6.9282 -1.4999 0.0 0
M  V30 12 N 6.0621 0.0 0.0 0
M  V30 13 C 6.0621 0.9999 0.0 0
M  V30 14 C 5.1961 -0.5 0.0 0
M  V30 15 C 6.9282 1.4999 0.0 0
M  V30 16 C 4.3301 0.0 0.0 0
M  V30 17 C 6.9282 2.4999 0.0 0
M  V30 18 C 3.4641 -0.5 0.0 0
M  V30 19 C 7.7942 2.9999 0.0 0
M  V30 20 C 6.0621 3.0 0.0 0
M  V30 21 C 2.598 0.0 0.0 0
M  V30 22 C 7.7942 3.9999 0.0 0
M  V30 23 C 6.0621 3.9999 0.0 0
M  V30 24 C 1.732 -0.5 0.0 0
M  V30 25 C 6.9282 4.4999 0.0 0
M  V30 26 C 0.866 0.0 0.0 0
M  V30 27 O 6.9282 5.4999 0.0 0
M  V30 28 C 0.0 -0.5 0.0 0
M  V30 29 C 6.0621 5.9999 0.0 0 CFG=2
M  V30 30 C 5.1961 5.5 0.0 0
M  V30 31 C 6.0621 7.0 0.0 0
M  V30 32 C 6.0621 5.0 0.0 0
M  V30 33 O 5.1961 4.5 0.0 0
M  V30 34 O 4.3301 6.0 0.0 0
M  V30 35 C 5.1961 7.5 0.0 0
M  V30 END ATOM
M  V30 BEGIN BOND
M  V30 1 1 1 2
M  V30 2 2 2 3
M  V30 3 1 2 4
M  V30 4 1 3 5
M  V30 5 1 3 6
M  V30 6 2 4 7
M  V30 7 1 5 8
M  V30 8 2 6 9
M  V30 9 1 7 10
M  V30 10 2 8 11
M  V30 11 1 8 12
M  V30 12 1 12 13
M  V30 13 1 12 14
M  V30 14 1 13 15
M  V30 15 1 14 16
M  V30 16 1 15 17
M  V30 17 1 16 18
M  V30 18 2 17 19
M  V30 19 1 17 20
M  V30 20 1 18 21
M  V30 21 1 19 22
M  V30 22 2 20 23
M  V30 23 1 21 24
M  V30 24 2 22 25
M  V30 25 1 24 26
M  V30 26 1 25 27
M  V30 27 1 26 28
M  V30 28 1 27 29
M  V30 29 1 29 30
M  V30 30 1 29 31
M  V30 31 1 29 32 CFG=1
M  V30 32 2 30 33
M  V30 33 1 30 34
M  V30 34 1 31 35
M  V30 35 1 7 9
M  V30 36 1 23 25
M  V30 END BOND
M  V30 BEGIN COLLECTION
M  V30 MDLV30/STEABS ATOMS=(1 29)
M  V30 END COLLECTION
M  V30 END CTAB
M  END
>  <Molecule ChEMBL ID>
CHEMBL248906

>  <Smiles>
CCCCCCCN(CCc1ccc(O[C@@](C)(CC)C(=O)O)cc1)C(=O)Nc1ccc(F)cc1F

>  <IC50_nM>
670

>  <Assay Description>
Displacement of fluorescein labeled ligand from PPARgamma receptor by fluorescence polarization assay

$$$$
CHEMBL272336
Actelion Java MolfileCreator 2.0

  0  0  0  0  0  0              0 V3000
M  V30 BEGIN CTAB
M  V30 COUNTS 41 45 0 0 0
M  V30 BEGIN ATOM
M  V30 1 Cl 6.1737 -5.3566 0.0 0
M  V30 2 C 5.7669 -4.443 0.0 0
M  V30 3 C 6.3547 -3.634 0.0 0
M  V30 4 C 4.7724 -4.3385 0.0 0
M  V30 5 C 5.948 -2.7205 0.0 0
M  V30 6 C 4.3657 -3.4249 0.0 0
M  V30 7 C 4.9535 -2.6159 0.0 0
M  V30 8 C 4.5467 -1.7024 0.0 0
M  V30 9 O 5.0467 -0.8364 0.0 0
M  V30 10 N 3.5686 -1.4945 0.0 0
M  V30 11 C 4.3776 -0.0932 0.0 0
M  V30 12 C 3.4641 -0.5 0.0 0
M  V30 13 C 4.5855 0.8848 0.0 0
M  V30 14 C 2.598 0.0 0.0 0
M  V30 15 C 1.732 -0.5 0.0 0
M  V30 16 O 0.866 0.0 0.0 0
M  V30 17 C 0.0 -0.5 0.0 0
M  V30 18 C -0.866 0.0 0.0 0
M  V30 19 C 0.0 -1.4999 0.0 0
M  V30 20 C -1.732 -0.4999 0.0 0
M  V30 21 C -0.866 -1.9999 0.0 0
M  V30 22 C -1.732 -1.4999 0.0 0
M  V30 23 C -2.598 0.0 0.0 0
M  V30 24 C -3.4641 -0.4999 0.0 0 CFG=2
M  V30 25 C -4.43 -0.2411 0.0 0
M  V30 26 C -3.7229 -1.4659 0.0 0 CFG=2
M  V30 27 O -4.93 0.6248 0.0 0
M  V30 28 N -4.6888 -1.2071 0.0 0
M  V30 29 C -3.2229 -2.3319 0.0 0
M  V30 30 C -5.5548 -1.7071 0.0 0
M  V30 31 O -3.7229 -3.1979 0.0 0
M  V30 32 O -2.2229 -2.3319 0.0 0
M  V30 33 C -6.4208 -1.2071 0.0 0
M  V30 34 C -5.5548 -2.7071 0.0 0
M  V30 35 C -7.2869 -1.7071 0.0 0
M  V30 36 C -6.4208 -3.2071 0.0 0
M  V30 37 C -7.2869 -2.7071 0.0 0
M  V30 38 C -8.1529 -3.2071 0.0 0
M  V30 39 C -7.6529 -4.0731 0.0 0
M  V30 40 C -9.0189 -3.7071 0.0 0
M  V30 41 C -8.6529 -2.341 0.0 0
M  V30 END ATOM
M  V30 BEGIN BOND
M  V30 1 1 1 2
M  V30 2 2 2 3
M  V30 3 1 2 4
M  V30 4 1 3 5
M  V30 5 2 4 6
M  V30 6 2 5 7
M  V30 7 1 7 8
M  V30 8 1 8 9
M  V30 9 2 8 10
M  V30 10 1 9 11
M  V30 11 1 10 12
M  V30 12 1 11 13
M  V30 13 1 12 14
M  V30 14 1 14 15
M  V30 15 1 15 16
M  V30 16 1 16 17
M  V30 17 2 17 18
M  V30 18 1 17 19
M  V30 19 1 18 20
M  V30 20 2 19 21
M  V30 21 2 20 22
M  V30 22 1 20 23
M  V30 23 1 24 23 CFG=1
M  V30 24 1 24 25
M  V30 25 1 24 26
M  V30 26 2 25 27
M  V30 27 1 25 28
M  V30 28 1 26 29 CFG=1
M  V30 29 1 28 30
M  V30 30 2 29 31
M  V30 31 1 29 32
M  V30 32 2 30 33
M  V30 33 1 30 34
M  V30 34 1 33 35
M  V30 35 2 34 36
M  V30 36 2 35 37
M  V30 37 1 37 38
M  V30 38 1 38 39
M  V30 39 1 38 40
M  V30 40 1 38 41
M  V30 41 1 6 7
M  V30 42 2 11 12
M  V30 43 1 21 22
M  V30 44 1 26 28
M  V30 45 1 36 37
M  V30 END BOND
M  V30 BEGIN COLLECTION
M  V30 MDLV30/STEABS ATOMS=(2 24 26)
M  V30 END COLLECTION
M  V30 END CTAB
M  END
>  <Molecule ChEMBL ID>
CHEMBL272336

>  <Smiles>
Cc1oc(-c2ccc(Cl)cc2)nc1CCOc1cccc(C[C@@H]2C(=O)N(c3ccc(C(C)(C)C)cc3)[C@@H]2C(=O)O)c1

>  <IC50_nM>
670

>  <Assay Description>
Inhibition of PPARgamma

$$$$
CHEMBL386504
Actelion Java MolfileCreator 2.0

  0  0  0  0  0  0              0 V3000
M  V30 BEGIN CTAB
M  V30 COUNTS 27 29 0 0 0
M  V30 BEGIN ATOM
M  V30 1 S 3.8971 0.0 0.0 0
M  V30 2 O 4.6471 -1.299 0.0 0
M  V30 3 O 3.1471 1.299 0.0 0
M  V30 4 N 2.598 -0.75 0.0 0
M  V30 5 C 5.1961 0.75 0.0 0
M  V30 6 C 1.299 0.0 0.0 0
M  V30 7 O 1.299 1.5 0.0 0
M  V30 8 C 0.0 -0.75 0.0 0
M  V30 9 N -1.3703 -0.1398 0.0 0
M  V30 10 C -0.1567 -2.2417 0.0 0
M  V30 11 C -2.374 -1.2546 0.0 0
M  V30 12 C -1.6821 1.3273 0.0 0
M  V30 13 C -1.624 -2.5536 0.0 0
M  V30 14 C -3.874 -1.2546 0.0 0
M  V30 15 C -3.1087 1.7908 0.0 0
M  V30 16 C -2.374 -3.8526 0.0 0
M  V30 17 C -4.624 -2.5536 0.0 0
M  V30 18 C -3.4206 3.258 0.0 0
M  V30 19 C -4.2234 0.7871 0.0 0
M  V30 20 C -3.874 -3.8526 0.0 0
M  V30 21 C -4.8472 3.7215 0.0 0
M  V30 22 C -5.65 1.2506 0.0 0
M  V30 23 C -5.9619 2.7179 0.0 0
M  V30 24 C -5.159 5.1888 0.0 0
M  V30 25 F -6.6263 4.8769 0.0 0
M  V30 26 F -5.4709 6.656 0.0 0
M  V30 27 F -3.6918 5.5006 0.0 0
M  V30 END ATOM
M  V30 BEGIN BOND
M  V30 1 2 1 2
M  V30 2 2 1 3
M  V30 3 1 1 4
M  V30 4 1 1 5
M  V30 5 1 4 6
M  V30 6 2 6 7
M  V30 7 1 6 8
M  V30 8 1 8 9
M  V30 9 2 8 10
M  V30 10 1 9 11
M  V30 11 1 9 12
M  V30 12 1 10 13
M  V30 13 1 11 14
M  V30 14 1 12 15
M  V30 15 1 13 16
M  V30 16 2 14 17
M  V30 17 2 15 18
M  V30 18 1 15 19
M  V30 19 2 16 20
M  V30 20 1 18 21
M  V30 21 2 19 22
M  V30 22 2 21 23
M  V30 23 1 21 24
M  V30 24 1 24 25
M  V30 25 1 24 26
M  V30 26 1 24 27
M  V30 27 2 11 13
M  V30 28 1 17 20
M  V30 29 1 22 23
M  V30 END BOND
M  V30 END CTAB
M  END
>  <Molecule ChEMBL ID>
CHEMBL386504

>  <Smiles>
CS(=O)(=O)NC(=O)c1cc2ccccc2n1Cc1cccc(C(F)(F)F)c1

>  <IC50_nM>
680

>  <Assay Description>
Displacement of Fluormone from PPAR gamma

$$$$
CHEMBL3398458
Actelion Java MolfileCreator 2.0

  0  0  0  0  0  0              0 V3000
M  V30 BEGIN CTAB
M  V30 COUNTS 36 39 0 0 0
M  V30 BEGIN ATOM
M  V30 1 O 9.4121 -5.7205 0.0 0
M  V30 2 C 8.4176 -5.6159 0.0 0
M  V30 3 O 7.8298 -6.4249 0.0 0
M  V30 4 N 8.0108 -4.7024 0.0 0
M  V30 5 C 6.8353 -6.3204 0.0 0
M  V30 6 C 8.5108 -3.8364 0.0 0
M  V30 7 C 7.0327 -4.4945 0.0 0
M  V30 8 C 6.2475 -7.1294 0.0 0
M  V30 9 C 7.8417 -3.0932 0.0 0 CFG=1
M  V30 10 C 6.9282 -3.5 0.0 0 CFG=2
M  V30 11 C 8.0496 -2.1151 0.0 0
M  V30 12 C 6.0621 -3.0 0.0 0
M  V30 13 O 9.0007 -1.806 0.0 0
M  V30 14 O 7.3065 -1.4459 0.0 0
M  V30 15 C 6.0621 -1.9999 0.0 0
M  V30 16 C 5.1961 -1.4999 0.0 0
M  V30 17 C 5.1961 -0.5 0.0 0
M  V30 18 C 4.3301 -1.9999 0.0 0
M  V30 19 C 4.3301 0.0 0.0 0
M  V30 20 C 3.4641 -1.5 0.0 0
M  V30 21 C 3.4641 -0.5 0.0 0
M  V30 22 O 2.598 0.0 0.0 0
M  V30 23 C 1.732 -0.5 0.0 0
M  V30 24 C 0.866 0.0 0.0 0
M  V30 25 C 0.0 -0.5 0.0 0
M  V30 26 N -0.9135 -0.0932 0.0 0
M  V30 27 C -0.1045 -1.4945 0.0 0
M  V30 28 C -1.5826 -0.8364 0.0 0
M  V30 29 O -1.0826 -1.7024 0.0 0
M  V30 30 C 0.6386 -2.1636 0.0 0
M  V30 31 C -2.5771 -0.7318 0.0 0
M  V30 32 C -2.9839 0.1816 0.0 0
M  V30 33 C -3.1649 -1.5408 0.0 0
M  V30 34 C -3.9784 0.2861 0.0 0
M  V30 35 C -4.1595 -1.4363 0.0 0
M  V30 36 C -4.5662 -0.5228 0.0 0
M  V30 END ATOM
M  V30 BEGIN BOND
M  V30 1 2 1 2
M  V30 2 1 2 3
M  V30 3 1 2 4
M  V30 4 1 3 5
M  V30 5 1 4 6
M  V30 6 1 4 7
M  V30 7 1 5 8
M  V30 8 1 6 9
M  V30 9 1 7 10
M  V30 10 1 9 11 CFG=1
M  V30 11 1 10 12 CFG=1
M  V30 12 2 11 13
M  V30 13 1 11 14
M  V30 14 1 12 15
M  V30 15 1 15 16
M  V30 16 2 16 17
M  V30 17 1 16 18
M  V30 18 1 17 19
M  V30 19 2 18 20
M  V30 20 2 19 21
M  V30 21 1 21 22
M  V30 22 1 22 23
M  V30 23 1 23 24
M  V30 24 1 24 25
M  V30 25 1 25 26
M  V30 26 2 25 27
M  V30 27 2 26 28
M  V30 28 1 27 29
M  V30 29 1 27 30
M  V30 30 1 28 31
M  V30 31 2 31 32
M  V30 32 1 31 33
M  V30 33 1 32 34
M  V30 34 2 33 35
M  V30 35 2 34 36
M  V30 36 1 9 10
M  V30 37 1 20 21
M  V30 38 1 28 29
M  V30 39 1 35 36
M  V30 END BOND
M  V30 BEGIN COLLECTION
M  V30 MDLV30/STEABS ATOMS=(2 9 10)
M  V30 END COLLECTION
M  V30 END CTAB
M  END
>  <Molecule ChEMBL ID>
CHEMBL3398458

>  <Smiles>
CCOC(=O)N1C[C@@H](CCc2ccc(OCCc3nc(-c4ccccc4)oc3C)cc2)[C@@H](C(=O)O)C1

>  <IC50_nM>
690

>  <Assay Description>
Binding affinity to PPARgamma (unknown origin) using fluorescein-tagged dual PPARalpha/gamma activator by homogeneous fluorescence polarization binding assay

$$$$
CHEMBL326873
Actelion Java MolfileCreator 2.0

  0  0  0  0  0  0              0 V3000
M  V30 BEGIN CTAB
M  V30 COUNTS 34 37 0 0 0
M  V30 BEGIN ATOM
M  V30 1 Cl 6.0621 1.0 0.0 0
M  V30 2 C 6.0621 0.0 0.0 0
M  V30 3 C 5.1961 -0.5 0.0 0
M  V30 4 C 6.9282 -0.4999 0.0 0
M  V30 5 O 4.3301 0.0 0.0 0
M  V30 6 C 5.1961 -1.4999 0.0 0
M  V30 7 C 6.9282 -1.4999 0.0 0
M  V30 8 C 3.4641 -0.5 0.0 0
M  V30 9 C 6.0621 -1.9999 0.0 0
M  V30 10 O 7.7942 -1.9999 0.0 0
M  V30 11 C 2.598 0.0 0.0 0
M  V30 12 C 8.6602 -1.4999 0.0 0
M  V30 13 C 1.732 -0.5 0.0 0
M  V30 14 C 9.5262 -1.9999 0.0 0
M  V30 15 C 8.6602 -0.4999 0.0 0
M  V30 16 O 0.866 0.0 0.0 0
M  V30 17 C 10.3923 -1.4999 0.0 0
M  V30 18 C 9.5262 0.0 0.0 0
M  V30 19 C 0.0 -0.5 0.0 0
M  V30 20 C 10.3923 -0.5 0.0 0
M  V30 21 C -0.866 0.0 0.0 0
M  V30 22 C 0.0 -1.4999 0.0 0
M  V30 23 C -1.732 -0.4999 0.0 0
M  V30 24 C -0.866 -1.9999 0.0 0
M  V30 25 O -2.598 0.0 0.0 0
M  V30 26 C -1.732 -1.4999 0.0 0
M  V30 27 C -3.4641 -0.4999 0.0 0 CFG=2
M  V30 28 C -2.598 -1.9999 0.0 0
M  V30 29 C -3.4641 0.5 0.0 0
M  V30 30 C -3.4641 -1.4999 0.0 0
M  V30 31 C -4.3301 0.0 0.0 0
M  V30 32 O -4.3301 1.0 0.0 0
M  V30 33 O -2.598 1.0 0.0 0
M  V30 34 C -5.1961 -0.4999 0.0 0
M  V30 END ATOM
M  V30 BEGIN BOND
M  V30 1 1 1 2
M  V30 2 2 2 3
M  V30 3 1 2 4
M  V30 4 1 3 5
M  V30 5 1 3 6
M  V30 6 2 4 7
M  V30 7 1 5 8
M  V30 8 2 6 9
M  V30 9 1 7 10
M  V30 10 1 8 11
M  V30 11 1 10 12
M  V30 12 1 11 13
M  V30 13 2 12 14
M  V30 14 1 12 15
M  V30 15 1 13 16
M  V30 16 1 14 17
M  V30 17 2 15 18
M  V30 18 1 16 19
M  V30 19 2 17 20
M  V30 20 2 19 21
M  V30 21 1 19 22
M  V30 22 1 21 23
M  V30 23 2 22 24
M  V30 24 1 23 25
M  V30 25 2 23 26
M  V30 26 1 25 27
M  V30 27 1 26 28
M  V30 28 1 27 29 CFG=1
M  V30 29 1 27 30
M  V30 30 1 27 31
M  V30 31 2 29 32
M  V30 32 1 29 33
M  V30 33 1 31 34
M  V30 34 1 7 9
M  V30 35 1 18 20
M  V30 36 1 24 26
M  V30 37 1 28 30
M  V30 END BOND
M  V30 BEGIN COLLECTION
M  V30 MDLV30/STERAC1 ATOMS=(1 27)
M  V30 END COLLECTION
M  V30 END CTAB
M  END
>  <Molecule ChEMBL ID>
CHEMBL326873

>  <Smiles>
CCC1(C(=O)O)CCc2ccc(OCCCOc3ccc(Oc4ccccc4)cc3Cl)cc2O1

>  <IC50_nM>
690

>  <Assay Description>
In vitro binding affinity for human PPAR gamma receptor using scintillation proximity assay (SPA)

$$$$
CHEMBL374363
Actelion Java MolfileCreator 2.0

  0  0  0  0  0  0              0 V3000
M  V30 BEGIN CTAB
M  V30 COUNTS 36 39 0 0 0
M  V30 BEGIN ATOM
M  V30 1 S 3.8971 0.0 0.0 0
M  V30 2 O 4.6471 1.299 0.0 0
M  V30 3 O 3.1471 1.299 0.0 0
M  V30 4 N 2.598 -0.75 0.0 0
M  V30 5 C 5.1961 -0.75 0.0 0
M  V30 6 C 1.299 0.0 0.0 0
M  V30 7 C 5.1961 -2.25 0.0 0
M  V30 8 C 6.4951 0.0 0.0 0
M  V30 9 O 1.299 1.5 0.0 0
M  V30 10 C 0.0 -0.75 0.0 0
M  V30 11 C 6.4951 -3.0 0.0 0
M  V30 12 C 7.7942 -0.75 0.0 0
M  V30 13 N -1.3703 -0.1398 0.0 0
M  V30 14 C -0.1567 -2.2417 0.0 0
M  V30 15 C 7.7942 -2.25 0.0 0
M  V30 16 C -2.374 -1.2546 0.0 0
M  V30 17 C -1.6821 1.3273 0.0 0
M  V30 18 C -1.624 -2.5536 0.0 0
M  V30 19 C 9.0932 -3.0 0.0 0
M  V30 20 C -3.874 -1.2546 0.0 0
M  V30 21 C -3.1087 1.7908 0.0 0
M  V30 22 C -2.374 -3.8526 0.0 0
M  V30 23 F 9.8432 -1.7009 0.0 0
M  V30 24 F 10.3923 -3.75 0.0 0
M  V30 25 F 8.3432 -4.299 0.0 0
M  V30 26 C -4.624 -2.5536 0.0 0
M  V30 27 C -3.4206 3.258 0.0 0
M  V30 28 C -4.2234 0.7871 0.0 0
M  V30 29 C -3.874 -3.8526 0.0 0
M  V30 30 C -4.8472 3.7216 0.0 0
M  V30 31 C -5.65 1.2506 0.0 0
M  V30 32 C -5.9619 2.7179 0.0 0
M  V30 33 C -7.3885 3.1814 0.0 0
M  V30 34 F -7.852 1.7548 0.0 0
M  V30 35 F -8.8151 3.6449 0.0 0
M  V30 36 F -6.925 4.608 0.0 0
M  V30 END ATOM
M  V30 BEGIN BOND
M  V30 1 2 1 2
M  V30 2 2 1 3
M  V30 3 1 1 4
M  V30 4 1 1 5
M  V30 5 1 4 6
M  V30 6 2 5 7
M  V30 7 1 5 8
M  V30 8 2 6 9
M  V30 9 1 6 10
M  V30 10 1 7 11
M  V30 11 2 8 12
M  V30 12 1 10 13
M  V30 13 2 10 14
M  V30 14 2 11 15
M  V30 15 1 13 16
M  V30 16 1 13 17
M  V30 17 1 14 18
M  V30 18 1 15 19
M  V30 19 1 16 20
M  V30 20 1 17 21
M  V30 21 1 18 22
M  V30 22 1 19 23
M  V30 23 1 19 24
M  V30 24 1 19 25
M  V30 25 2 20 26
M  V30 26 2 21 27
M  V30 27 1 21 28
M  V30 28 2 22 29
M  V30 29 1 27 30
M  V30 30 2 28 31
M  V30 31 2 30 32
M  V30 32 1 32 33
M  V30 33 1 33 34
M  V30 34 1 33 35
M  V30 35 1 33 36
M  V30 36 1 12 15
M  V30 37 2 16 18
M  V30 38 1 26 29
M  V30 39 1 31 32
M  V30 END BOND
M  V30 END CTAB
M  END
>  <Molecule ChEMBL ID>
CHEMBL374363

>  <Smiles>
O=C(NS(=O)(=O)c1ccc(C(F)(F)F)cc1)c1cc2ccccc2n1Cc1ccc(C(F)(F)F)cc1

>  <IC50_nM>
700

>  <Assay Description>
Displacement of Fluormone from PPAR gamma

$$$$
CHEMBL471828
Actelion Java MolfileCreator 2.0

  0  0  0  0  0  0              0 V3000
M  V30 BEGIN CTAB
M  V30 COUNTS 26 28 0 0 0
M  V30 BEGIN ATOM
M  V30 1 S 3.8971 0.0 0.0 0
M  V30 2 O 4.6471 1.299 0.0 0
M  V30 3 O 3.1471 1.299 0.0 0
M  V30 4 O 5.1961 -0.75 0.0 0
M  V30 5 C 2.598 -0.75 0.0 0
M  V30 6 C 6.4952 0.0 0.0 0
M  V30 7 C 1.299 0.0 0.0 0
M  V30 8 C 7.7942 -0.75 0.0 0
M  V30 9 C 6.4952 1.5 0.0 0
M  V30 10 C 0.0 -0.75 0.0 0
M  V30 11 C 9.0932 0.0 0.0 0
M  V30 12 C 7.7942 2.25 0.0 0
M  V30 13 C -1.299 0.0 0.0 0
M  V30 14 C 0.0 -2.25 0.0 0
M  V30 15 C 9.0932 1.5 0.0 0
M  V30 16 C -2.598 -0.75 0.0 0
M  V30 17 C -1.299 -3.0 0.0 0
M  V30 18 O 10.3923 2.25 0.0 0
M  V30 19 C -2.598 -2.25 0.0 0
M  V30 20 C 11.6913 1.5 0.0 0
M  V30 21 C 12.9904 2.25 0.0 0
M  V30 22 C 14.2894 1.5 0.0 0
M  V30 23 C 12.9904 3.75 0.0 0
M  V30 24 C 15.5884 2.25 0.0 0
M  V30 25 C 14.2894 4.5 0.0 0
M  V30 26 C 15.5884 3.75 0.0 0
M  V30 END ATOM
M  V30 BEGIN BOND
M  V30 1 2 1 2
M  V30 2 2 1 3
M  V30 3 1 1 4
M  V30 4 1 1 5
M  V30 5 1 4 6
M  V30 6 2 5 7
M  V30 7 2 6 8
M  V30 8 1 6 9
M  V30 9 1 7 10
M  V30 10 1 8 11
M  V30 11 2 9 12
M  V30 12 2 10 13
M  V30 13 1 10 14
M  V30 14 2 11 15
M  V30 15 1 13 16
M  V30 16 2 14 17
M  V30 17 1 15 18
M  V30 18 2 16 19
M  V30 19 1 18 20
M  V30 20 1 20 21
M  V30 21 2 21 22
M  V30 22 1 21 23
M  V30 23 1 22 24
M  V30 24 2 23 25
M  V30 25 2 24 26
M  V30 26 1 12 15
M  V30 27 1 17 19
M  V30 28 1 25 26
M  V30 END BOND
M  V30 END CTAB
M  END
>  <Molecule ChEMBL ID>
CHEMBL471828

>  <Smiles>
O=S(=O)(/C=C/c1ccccc1)Oc1ccc(OCc2ccccc2)cc1

>  <IC50_nM>
703

>  <Assay Description>
Displacement of [3H]BRL49653 from PPARgamma ligand binding domain by scintillation proximity assay

$$$$
CHEMBL223379
Actelion Java MolfileCreator 2.0

  0  0  0  0  0  0              0 V3000
M  V30 BEGIN CTAB
M  V30 COUNTS 38 41 0 0 0
M  V30 BEGIN ATOM
M  V30 1 O 2.598 1.0 0.0 0
M  V30 2 C 2.598 0.0 0.0 0
M  V30 3 N 3.4641 -0.5 0.0 0
M  V30 4 N 1.732 -0.5 0.0 0
M  V30 5 C 4.3301 0.0 0.0 0
M  V30 6 C 0.866 0.0 0.0 0
M  V30 7 C 5.1961 -0.5 0.0 0
M  V30 8 C 0.0 -0.5 0.0 0
M  V30 9 C 5.1961 -1.5 0.0 0
M  V30 10 C 6.0621 0.0 0.0 0
M  V30 11 C -0.866 0.0 0.0 0
M  V30 12 C 0.0 -1.4999 0.0 0
M  V30 13 C 6.0621 -2.0 0.0 0
M  V30 14 C 4.3301 -1.9999 0.0 0
M  V30 15 C 6.9282 -0.5 0.0 0
M  V30 16 C -1.732 -0.4999 0.0 0
M  V30 17 C -0.866 -1.9999 0.0 0
M  V30 18 C 6.9282 -1.5 0.0 0
M  V30 19 C 4.3301 -2.9999 0.0 0
M  V30 20 O 7.7942 0.0 0.0 0
M  V30 21 C -1.732 -1.4999 0.0 0
M  V30 22 C 3.4641 -3.4999 0.0 0
M  V30 23 C 7.7942 0.9999 0.0 0
M  V30 24 O 2.598 -2.9999 0.0 0
M  V30 25 O 3.4641 -4.4999 0.0 0
M  V30 26 C 8.6602 1.4999 0.0 0
M  V30 27 C 8.6602 2.4999 0.0 0
M  V30 28 N 9.4692 3.0877 0.0 0
M  V30 29 C 7.8512 3.0877 0.0 0
M  V30 30 C 9.1602 4.0388 0.0 0
M  V30 31 O 8.1602 4.0388 0.0 0
M  V30 32 C 6.9001 2.7787 0.0 0
M  V30 33 C 9.748 4.8478 0.0 0
M  V30 34 C 10.7425 4.7433 0.0 0
M  V30 35 C 9.3413 5.7614 0.0 0
M  V30 36 C 11.3303 5.5523 0.0 0
M  V30 37 C 9.929 6.5704 0.0 0
M  V30 38 C 10.9236 6.4658 0.0 0
M  V30 END ATOM
M  V30 BEGIN BOND
M  V30 1 2 1 2
M  V30 2 1 2 3
M  V30 3 1 2 4
M  V30 4 1 3 5
M  V30 5 1 4 6
M  V30 6 1 5 7
M  V30 7 1 6 8
M  V30 8 2 7 9
M  V30 9 1 7 10
M  V30 10 2 8 11
M  V30 11 1 8 12
M  V30 12 1 9 13
M  V30 13 1 9 14
M  V30 14 2 10 15
M  V30 15 1 11 16
M  V30 16 2 12 17
M  V30 17 2 13 18
M  V30 18 1 14 19
M  V30 19 1 15 20
M  V30 20 2 16 21
M  V30 21 1 19 22
M  V30 22 1 20 23
M  V30 23 2 22 24
M  V30 24 1 22 25
M  V30 25 1 23 26
M  V30 26 1 26 27
M  V30 27 1 27 28
M  V30 28 2 27 29
M  V30 29 2 28 30
M  V30 30 1 29 31
M  V30 31 1 29 32
M  V30 32 1 30 33
M  V30 33 2 33 34
M  V30 34 1 33 35
M  V30 35 1 34 36
M  V30 36 2 35 37
M  V30 37 2 36 38
M  V30 38 1 15 18
M  V30 39 1 17 21
M  V30 40 1 30 31
M  V30 41 1 37 38
M  V30 END BOND
M  V30 END CTAB
M  END
>  <Molecule ChEMBL ID>
CHEMBL223379

>  <Smiles>
Cc1oc(-c2ccccc2)nc1CCOc1ccc(CCC(=O)O)c(CNC(=O)NCc2ccccc2)c1

>  <IC50_nM>
706

>  <Assay Description>
Displacement of [3H]2-methyl-2-(4-{3-propyl-(5-pyridin-2yl-thiophene-2-sulfonyl)-amino]-pro-pyl}-phenoxy)-propionic acid from human PPARgamma

$$$$
CHEMBL257164
Actelion Java MolfileCreator 2.0

  0  0  0  0  0  0              0 V3000
M  V30 BEGIN CTAB
M  V30 COUNTS 39 42 0 0 0
M  V30 BEGIN ATOM
M  V30 1 O 4.3301 0.0 0.0 0
M  V30 2 C 3.4641 -0.5 0.0 0
M  V30 3 O 2.598 0.0 0.0 0
M  V30 4 N 3.4641 -1.5 0.0 0
M  V30 5 C 1.732 -0.5 0.0 0
M  V30 6 C 2.598 -2.0 0.0 0
M  V30 7 C 4.3301 -2.0 0.0 0
M  V30 8 C 0.866 0.0 0.0 0
M  V30 9 C 2.598 -3.0 0.0 0
M  V30 10 C 4.3301 -3.0 0.0 0
M  V30 11 C 0.866 1.0 0.0 0
M  V30 12 C 0.0 -0.5 0.0 0
M  V30 13 C 3.4641 -3.5 0.0 0
M  V30 14 C 1.732 -3.5 0.0 0
M  V30 15 C 3.4641 -4.5 0.0 0
M  V30 16 C 0.866 -3.0 0.0 0
M  V30 17 O 2.598 -5.0 0.0 0
M  V30 18 O 4.3301 -5.0 0.0 0
M  V30 19 C 0.0 -3.5 0.0 0
M  V30 20 C -0.866 -2.9999 0.0 0
M  V30 21 C 0.0 -4.5 0.0 0
M  V30 22 C -1.732 -3.5 0.0 0
M  V30 23 C -0.866 -5.0 0.0 0
M  V30 24 C -1.732 -4.5 0.0 0
M  V30 25 O -2.598 -5.0 0.0 0
M  V30 26 C -2.598 -6.0 0.0 0
M  V30 27 C -3.4641 -6.5 0.0 0
M  V30 28 C -3.4641 -7.5 0.0 0
M  V30 29 N -4.2731 -8.0877 0.0 0
M  V30 30 C -2.655 -8.0877 0.0 0
M  V30 31 C -3.9641 -9.0388 0.0 0
M  V30 32 O -2.9641 -9.0388 0.0 0
M  V30 33 C -1.704 -7.7787 0.0 0
M  V30 34 C -4.5518 -9.8478 0.0 0
M  V30 35 C -5.5464 -9.7433 0.0 0
M  V30 36 C -4.1451 -10.7614 0.0 0
M  V30 37 C -6.1341 -10.5523 0.0 0
M  V30 38 C -4.7329 -11.5704 0.0 0
M  V30 39 C -5.7274 -11.4658 0.0 0
M  V30 END ATOM
M  V30 BEGIN BOND
M  V30 1 2 1 2
M  V30 2 1 2 3
M  V30 3 1 2 4
M  V30 4 1 3 5
M  V30 5 1 4 6
M  V30 6 1 4 7
M  V30 7 1 5 8
M  V30 8 1 6 9
M  V30 9 1 7 10
M  V30 10 1 8 11
M  V30 11 1 8 12
M  V30 12 1 9 13
M  V30 13 1 9 14
M  V30 14 1 13 15
M  V30 15 1 14 16
M  V30 16 2 15 17
M  V30 17 1 15 18
M  V30 18 1 16 19
M  V30 19 2 19 20
M  V30 20 1 19 21
M  V30 21 1 20 22
M  V30 22 2 21 23
M  V30 23 2 22 24
M  V30 24 1 24 25
M  V30 25 1 25 26
M  V30 26 1 26 27
M  V30 27 1 27 28
M  V30 28 1 28 29
M  V30 29 2 28 30
M  V30 30 2 29 31
M  V30 31 1 30 32
M  V30 32 1 30 33
M  V30 33 1 31 34
M  V30 34 2 34 35
M  V30 35 1 34 36
M  V30 36 1 35 37
M  V30 37 2 36 38
M  V30 38 2 37 39
M  V30 39 1 10 13
M  V30 40 1 23 24
M  V30 41 1 31 32
M  V30 42 1 38 39
M  V30 END BOND
M  V30 END CTAB
M  END
>  <Molecule ChEMBL ID>
CHEMBL257164

>  <Smiles>
Cc1oc(-c2ccccc2)nc1CCOc1ccc(CCC2CN(C(=O)OCC(C)C)CCC2C(=O)O)cc1

>  <IC50_nM>
711

>  <Assay Description>
Binding affinity at human PPARalpha by fluorescence polarization

$$$$
CHEMBL474947
Actelion Java MolfileCreator 2.0

  0  0  0  0  0  0              0 V3000
M  V30 BEGIN CTAB
M  V30 COUNTS 36 40 0 0 0
M  V30 BEGIN ATOM
M  V30 1 O 8.0301 -2.3006 0.0 0
M  V30 2 C 7.8222 -3.2787 0.0 0
M  V30 3 O 8.5653 -3.9478 0.0 0
M  V30 4 C 6.8711 -3.5877 0.0 0
M  V30 5 N 6.5621 -4.5388 0.0 0
M  V30 6 C 6.0621 -2.9999 0.0 0
M  V30 7 N 5.5621 -4.5388 0.0 0
M  V30 8 N 5.2531 -3.5877 0.0 0
M  V30 9 C 6.0621 -1.9999 0.0 0
M  V30 10 C 4.9743 -5.3478 0.0 0
M  V30 11 C 5.1961 -1.4999 0.0 0
M  V30 12 C 5.3811 -6.2614 0.0 0
M  V30 13 C 3.9798 -5.2433 0.0 0
M  V30 14 C 5.1961 -0.5 0.0 0
M  V30 15 C 4.3301 -1.9999 0.0 0
M  V30 16 C 4.7933 -7.0704 0.0 0
M  V30 17 C 3.392 -6.0523 0.0 0
M  V30 18 C 4.3301 0.0 0.0 0
M  V30 19 C 3.4641 -1.5 0.0 0
M  V30 20 C 3.7988 -6.9658 0.0 0
M  V30 21 C 3.4641 -0.5 0.0 0
M  V30 22 O 2.598 0.0 0.0 0
M  V30 23 C 1.732 -0.5 0.0 0
M  V30 24 C 0.866 0.0 0.0 0
M  V30 25 C 0.0 -0.5 0.0 0
M  V30 26 N -0.9135 -0.0932 0.0 0
M  V30 27 C -0.1045 -1.4945 0.0 0
M  V30 28 C -1.5826 -0.8364 0.0 0
M  V30 29 O -1.0826 -1.7024 0.0 0
M  V30 30 C 0.6386 -2.1636 0.0 0
M  V30 31 C -2.5771 -0.7318 0.0 0
M  V30 32 C -2.9839 0.1816 0.0 0
M  V30 33 C -3.1649 -1.5408 0.0 0
M  V30 34 C -3.9784 0.2861 0.0 0
M  V30 35 C -4.1595 -1.4363 0.0 0
M  V30 36 C -4.5662 -0.5228 0.0 0
M  V30 END ATOM
M  V30 BEGIN BOND
M  V30 1 2 1 2
M  V30 2 1 2 3
M  V30 3 1 2 4
M  V30 4 2 4 5
M  V30 5 1 4 6
M  V30 6 1 5 7
M  V30 7 2 6 8
M  V30 8 1 6 9
M  V30 9 1 7 10
M  V30 10 1 9 11
M  V30 11 2 10 12
M  V30 12 1 10 13
M  V30 13 2 11 14
M  V30 14 1 11 15
M  V30 15 1 12 16
M  V30 16 2 13 17
M  V30 17 1 14 18
M  V30 18 2 15 19
M  V30 19 2 16 20
M  V30 20 2 18 21
M  V30 21 1 21 22
M  V30 22 1 22 23
M  V30 23 1 23 24
M  V30 24 1 24 25
M  V30 25 1 25 26
M  V30 26 2 25 27
M  V30 27 2 26 28
M  V30 28 1 27 29
M  V30 29 1 27 30
M  V30 30 1 28 31
M  V30 31 2 31 32
M  V30 32 1 31 33
M  V30 33 1 32 34
M  V30 34 2 33 35
M  V30 35 2 34 36
M  V30 36 1 7 8
M  V30 37 1 17 20
M  V30 38 1 19 21
M  V30 39 1 28 29
M  V30 40 1 35 36
M  V30 END BOND
M  V30 END CTAB
M  END
>  <Molecule ChEMBL ID>
CHEMBL474947

>  <Smiles>
Cc1oc(-c2ccccc2)nc1CCOc1ccc(Cc2nn(-c3ccccc3)nc2C(=O)O)cc1

>  <IC50_nM>
712

>  <Assay Description>
Binding affinity to PPARgamma by fluorescence polarization assay

$$$$
CHEMBL230566
Actelion Java MolfileCreator 2.0

  0  0  0  0  0  0              0 V3000
M  V30 BEGIN CTAB
M  V30 COUNTS 31 34 0 0 0
M  V30 BEGIN ATOM
M  V30 1 O 6.9282 -4.4999 0.0 0
M  V30 2 C 6.9282 -3.4999 0.0 0
M  V30 3 N 7.7942 -3.0 0.0 0
M  V30 4 N 6.0621 -2.9999 0.0 0
M  V30 5 C 7.7942 -1.9999 0.0 0
M  V30 6 C 6.0621 -2.0 0.0 0 CFG=2
M  V30 7 C 6.9282 -1.4999 0.0 0
M  V30 8 C 8.6602 -1.4999 0.0 0
M  V30 9 C 5.1961 -1.4999 0.0 0
M  V30 10 C 6.9282 -0.4999 0.0 0
M  V30 11 C 5.1961 -0.5 0.0 0
M  V30 12 C 4.3301 -1.9999 0.0 0
M  V30 13 O 7.7942 0.0 0.0 0
M  V30 14 O 6.0621 0.0 0.0 0
M  V30 15 C 4.3301 0.0 0.0 0
M  V30 16 C 3.4641 -1.5 0.0 0
M  V30 17 O 4.3301 1.0 0.0 0
M  V30 18 C 3.4641 -0.5 0.0 0
M  V30 19 C 3.4641 1.5 0.0 0
M  V30 20 O 2.598 0.0 0.0 0
M  V30 21 C 1.732 -0.5 0.0 0
M  V30 22 C 0.866 0.0 0.0 0
M  V30 23 N 0.0 -0.5 0.0 0
M  V30 24 C -0.9135 -0.0932 0.0 0
M  V30 25 C -0.1045 -1.4945 0.0 0
M  V30 26 N -1.2225 0.8577 0.0 0
M  V30 27 C -1.5826 -0.8364 0.0 0
M  V30 28 C -1.0826 -1.7024 0.0 0
M  V30 29 C -2.2007 1.0657 0.0 0
M  V30 30 C -2.5608 -0.6284 0.0 0
M  V30 31 C -2.8698 0.3225 0.0 0
M  V30 END ATOM
M  V30 BEGIN BOND
M  V30 1 2 1 2
M  V30 2 1 2 3
M  V30 3 1 2 4
M  V30 4 1 3 5
M  V30 5 1 4 6
M  V30 6 2 5 7
M  V30 7 1 5 8
M  V30 8 1 6 9 CFG=1
M  V30 9 1 7 10
M  V30 10 2 9 11
M  V30 11 1 9 12
M  V30 12 2 10 13
M  V30 13 1 10 14
M  V30 14 1 11 15
M  V30 15 2 12 16
M  V30 16 1 15 17
M  V30 17 2 15 18
M  V30 18 1 17 19
M  V30 19 1 18 20
M  V30 20 1 20 21
M  V30 21 1 21 22
M  V30 22 1 22 23
M  V30 23 1 23 24
M  V30 24 1 23 25
M  V30 25 2 24 26
M  V30 26 1 24 27
M  V30 27 2 25 28
M  V30 28 1 26 29
M  V30 29 2 27 30
M  V30 30 2 29 31
M  V30 31 1 6 7
M  V30 32 1 16 18
M  V30 33 1 27 28
M  V30 34 1 30 31
M  V30 END BOND
M  V30 BEGIN COLLECTION
M  V30 MDLV30/STERAC1 ATOMS=(1 6)
M  V30 END COLLECTION
M  V30 END CTAB
M  END
>  <Molecule ChEMBL ID>
CHEMBL230566

>  <Smiles>
COc1cc(C2NC(=O)NC(C)=C2C(=O)O)ccc1OCCn1ccc2cccnc21

>  <IC50_nM>
720

>  <Assay Description>
Displacement of [3H]rosiglitazone from PPAR gamma

$$$$
CHEMBL218175
Actelion Java MolfileCreator 2.0

  0  0  0  0  0  0              0 V3000
M  V30 BEGIN CTAB
M  V30 COUNTS 33 36 0 0 0
M  V30 BEGIN ATOM
M  V30 1 S 3.8971 0.0 0.0 0
M  V30 2 O 4.6471 1.299 0.0 0
M  V30 3 O 3.1471 1.299 0.0 0
M  V30 4 N 2.598 -0.75 0.0 0
M  V30 5 C 5.1961 -0.75 0.0 0
M  V30 6 C 1.299 0.0 0.0 0
M  V30 7 C 5.1961 -2.25 0.0 0
M  V30 8 C 6.4951 0.0 0.0 0
M  V30 9 O 1.299 1.5 0.0 0
M  V30 10 C 0.0 -0.75 0.0 0
M  V30 11 C 6.4951 -3.0 0.0 0
M  V30 12 C 7.7942 -0.75 0.0 0
M  V30 13 N -1.3703 -0.1398 0.0 0
M  V30 14 C -0.1567 -2.2417 0.0 0
M  V30 15 C 7.7942 -2.25 0.0 0
M  V30 16 C -2.374 -1.2546 0.0 0
M  V30 17 C -1.6821 1.3273 0.0 0
M  V30 18 C -1.624 -2.5536 0.0 0
M  V30 19 F 9.0932 -3.0 0.0 0
M  V30 20 C -3.874 -1.2546 0.0 0
M  V30 21 C -3.1087 1.7908 0.0 0
M  V30 22 C -2.374 -3.8526 0.0 0
M  V30 23 C -4.624 -2.5536 0.0 0
M  V30 24 C -3.4206 3.258 0.0 0
M  V30 25 C -4.2234 0.7871 0.0 0
M  V30 26 C -3.874 -3.8526 0.0 0
M  V30 27 C -4.8472 3.7216 0.0 0
M  V30 28 C -5.65 1.2506 0.0 0
M  V30 29 C -5.9619 2.7179 0.0 0
M  V30 30 C -5.159 5.1888 0.0 0
M  V30 31 F -6.6263 4.8769 0.0 0
M  V30 32 F -5.4709 6.656 0.0 0
M  V30 33 F -3.6918 5.5006 0.0 0
M  V30 END ATOM
M  V30 BEGIN BOND
M  V30 1 2 1 2
M  V30 2 2 1 3
M  V30 3 1 1 4
M  V30 4 1 1 5
M  V30 5 1 4 6
M  V30 6 2 5 7
M  V30 7 1 5 8
M  V30 8 2 6 9
M  V30 9 1 6 10
M  V30 10 1 7 11
M  V30 11 2 8 12
M  V30 12 1 10 13
M  V30 13 2 10 14
M  V30 14 2 11 15
M  V30 15 1 13 16
M  V30 16 1 13 17
M  V30 17 1 14 18
M  V30 18 1 15 19
M  V30 19 1 16 20
M  V30 20 1 17 21
M  V30 21 1 18 22
M  V30 22 2 20 23
M  V30 23 2 21 24
M  V30 24 1 21 25
M  V30 25 2 22 26
M  V30 26 1 24 27
M  V30 27 2 25 28
M  V30 28 2 27 29
M  V30 29 1 27 30
M  V30 30 1 30 31
M  V30 31 1 30 32
M  V30 32 1 30 33
M  V30 33 1 12 15
M  V30 34 2 16 18
M  V30 35 1 23 26
M  V30 36 1 28 29
M  V30 END BOND
M  V30 END CTAB
M  END
>  <Molecule ChEMBL ID>
CHEMBL218175

>  <Smiles>
O=C(NS(=O)(=O)c1ccc(F)cc1)c1cc2ccccc2n1Cc1cccc(C(F)(F)F)c1

>  <IC50_nM>
720

>  <Assay Description>
Displacement of Fluormone from PPAR gamma

$$$$
CHEMBL595
Actelion Java MolfileCreator 2.0

  0  0  0  0  0  0              0 V3000
M  V30 BEGIN CTAB
M  V30 COUNTS 25 27 0 0 0
M  V30 BEGIN ATOM
M  V30 1 S 5.2531 -3.5877 0.0 0
M  V30 2 C 5.5621 -4.5388 0.0 0
M  V30 3 C 6.0621 -3.0 0.0 0 CFG=2
M  V30 4 O 4.9743 -5.3478 0.0 0
M  V30 5 N 6.5621 -4.5388 0.0 0
M  V30 6 C 6.8711 -3.5877 0.0 0
M  V30 7 C 6.0621 -1.9999 0.0 0
M  V30 8 O 7.8222 -3.2787 0.0 0
M  V30 9 C 5.1961 -1.4999 0.0 0
M  V30 10 C 5.1961 -0.5 0.0 0
M  V30 11 C 4.3301 -1.9999 0.0 0
M  V30 12 C 4.3301 0.0 0.0 0
M  V30 13 C 3.4641 -1.5 0.0 0
M  V30 14 C 3.4641 -0.5 0.0 0
M  V30 15 O 2.598 0.0 0.0 0
M  V30 16 C 1.732 -0.5 0.0 0
M  V30 17 C 0.866 0.0 0.0 0
M  V30 18 C 0.0 -0.5 0.0 0
M  V30 19 N -0.866 0.0 0.0 0
M  V30 20 C 0.0 -1.4999 0.0 0
M  V30 21 C -1.732 -0.4999 0.0 0
M  V30 22 C -0.866 -1.9999 0.0 0
M  V30 23 C -1.732 -1.4999 0.0 0
M  V30 24 C -2.598 -1.9999 0.0 0
M  V30 25 C -2.598 -2.9999 0.0 0
M  V30 END ATOM
M  V30 BEGIN BOND
M  V30 1 1 1 2
M  V30 2 1 1 3
M  V30 3 2 2 4
M  V30 4 1 2 5
M  V30 5 1 3 6
M  V30 6 1 3 7 CFG=1
M  V30 7 2 6 8
M  V30 8 1 7 9
M  V30 9 2 9 10
M  V30 10 1 9 11
M  V30 11 1 10 12
M  V30 12 2 11 13
M  V30 13 2 12 14
M  V30 14 1 14 15
M  V30 15 1 15 16
M  V30 16 1 16 17
M  V30 17 1 17 18
M  V30 18 2 18 19
M  V30 19 1 18 20
M  V30 20 1 19 21
M  V30 21 2 20 22
M  V30 22 2 21 23
M  V30 23 1 23 24
M  V30 24 1 24 25
M  V30 25 1 5 6
M  V30 26 1 13 14
M  V30 27 1 22 23
M  V30 END BOND
M  V30 BEGIN COLLECTION
M  V30 MDLV30/STERAC1 ATOMS=(1 3)
M  V30 END COLLECTION
M  V30 END CTAB
M  END
>  <Molecule ChEMBL ID>
CHEMBL595

>  <Smiles>
CCc1ccc(CCOc2ccc(CC3SC(=O)NC3=O)cc2)nc1

>  <IC50_nM>
720

>  <Assay Description>
Agonist activity at PPARgamma (unknown origin)

$$$$
CHEMBL452299
Actelion Java MolfileCreator 2.0

  0  0  0  0  0  0              0 V3000
M  V30 BEGIN CTAB
M  V30 COUNTS 33 36 0 0 0
M  V30 BEGIN ATOM
M  V30 1 O 7.8298 -3.4249 0.0 0
M  V30 2 C 8.4176 -2.6159 0.0 0
M  V30 3 C 9.4121 -2.7205 0.0 0
M  V30 4 C 8.0108 -1.7024 0.0 0
M  V30 5 C 9.8188 -3.634 0.0 0
M  V30 6 C 9.9999 -1.9114 0.0 0
M  V30 7 C 8.5108 -0.8364 0.0 0
M  V30 8 C 7.0327 -1.4945 0.0 0
M  V30 9 C 10.8133 -3.7385 0.0 0
M  V30 10 C 10.9944 -2.016 0.0 0
M  V30 11 C 7.8417 -0.0932 0.0 0
M  V30 12 C 9.489 -0.6284 0.0 0
M  V30 13 N 6.9282 -0.5 0.0 0
M  V30 14 C 6.2895 -2.1636 0.0 0
M  V30 15 C 11.4011 -2.9295 0.0 0
M  V30 16 N 8.1507 0.8577 0.0 0
M  V30 17 C 9.798 0.3225 0.0 0
M  V30 18 C 6.0621 0.0 0.0 0
M  V30 19 O 12.3957 -3.034 0.0 0
M  V30 20 C 9.1289 1.0657 0.0 0
M  V30 21 C 5.1961 -0.5 0.0 0
M  V30 22 C 12.9834 -2.225 0.0 0
M  V30 23 C 4.3301 0.0 0.0 0
M  V30 24 C 5.1961 -1.4999 0.0 0
M  V30 25 C 3.4641 -0.5 0.0 0
M  V30 26 C 4.3301 -1.9999 0.0 0
M  V30 27 O 2.598 0.0 0.0 0
M  V30 28 C 3.4641 -1.4999 0.0 0
M  V30 29 C 1.732 -0.5 0.0 0 CFG=1
M  V30 30 C 0.866 0.0 0.0 0
M  V30 31 C 1.732 -1.5 0.0 0
M  V30 32 O 0.866 1.0 0.0 0
M  V30 33 O 0.0 -0.5 0.0 0
M  V30 END ATOM
M  V30 BEGIN BOND
M  V30 1 2 1 2
M  V30 2 1 2 3
M  V30 3 1 2 4
M  V30 4 2 3 5
M  V30 5 1 3 6
M  V30 6 1 4 7
M  V30 7 2 4 8
M  V30 8 1 5 9
M  V30 9 2 6 10
M  V30 10 2 7 11
M  V30 11 1 7 12
M  V30 12 1 8 13
M  V30 13 1 8 14
M  V30 14 2 9 15
M  V30 15 1 11 16
M  V30 16 2 12 17
M  V30 17 1 13 18
M  V30 18 1 15 19
M  V30 19 2 16 20
M  V30 20 1 18 21
M  V30 21 1 19 22
M  V30 22 2 21 23
M  V30 23 1 21 24
M  V30 24 1 23 25
M  V30 25 2 24 26
M  V30 26 1 25 27
M  V30 27 2 25 28
M  V30 28 1 27 29
M  V30 29 1 29 30
M  V30 30 1 29 31 CFG=3
M  V30 31 2 30 32
M  V30 32 1 30 33
M  V30 33 1 10 15
M  V30 34 1 11 13
M  V30 35 1 17 20
M  V30 36 1 26 28
M  V30 END BOND
M  V30 BEGIN COLLECTION
M  V30 MDLV30/STEABS ATOMS=(1 29)
M  V30 END COLLECTION
M  V30 END CTAB
M  END
>  <Molecule ChEMBL ID>
CHEMBL452299

>  <Smiles>
COc1ccc(C(=O)c2c(C)n(Cc3cccc(O[C@H](C)C(=O)O)c3)c3ncccc23)cc1

>  <IC50_nM>
726

>  <Assay Description>
Displacement of [3H]2AD-5075 from GST-tagged human PPARgamma receptor expressed in Escherichia coli BL21

$$$$
CHEMBL1783044
Actelion Java MolfileCreator 2.0

  0  0  0  0  0  0              0 V3000
M  V30 BEGIN CTAB
M  V30 COUNTS 35 38 0 0 0
M  V30 BEGIN ATOM
M  V30 1 S 7.8987 -2.9945 0.0 0
M  V30 2 C 8.8769 -3.2024 0.0 0
M  V30 3 C 7.7942 -2.0 0.0 0 CFG=2
M  V30 4 O 9.2836 -4.1159 0.0 0
M  V30 5 N 9.3769 -2.3364 0.0 0
M  V30 6 C 6.9282 -1.5 0.0 0
M  V30 7 C 8.7077 -1.5932 0.0 0
M  V30 8 C 6.9282 -0.5 0.0 0
M  V30 9 C 6.0621 -2.0 0.0 0
M  V30 10 O 8.9156 -0.6151 0.0 0
M  V30 11 C 6.0621 0.0 0.0 0
M  V30 12 C 5.1961 -1.5 0.0 0
M  V30 13 C 5.1961 -0.5 0.0 0
M  V30 14 O 4.3301 0.0 0.0 0
M  V30 15 C 3.4641 -0.5 0.0 0
M  V30 16 C 2.598 0.0 0.0 0
M  V30 17 C 1.732 -0.5 0.0 0
M  V30 18 O 0.866 0.0 0.0 0
M  V30 19 C 0.0 -0.5 0.0 0
M  V30 20 C -0.866 0.0 0.0 0
M  V30 21 C 0.0 -1.4999 0.0 0
M  V30 22 C -1.732 -0.4999 0.0 0
M  V30 23 C -0.866 1.0 0.0 0
M  V30 24 C -0.866 -1.9999 0.0 0
M  V30 25 C -1.732 -1.4999 0.0 0
M  V30 26 C 0.0 1.5 0.0 0
M  V30 27 O -2.598 -1.9999 0.0 0
M  V30 28 C 0.0 2.5 0.0 0
M  V30 29 C -2.598 -2.9999 0.0 0
M  V30 30 C -3.4641 -3.4999 0.0 0
M  V30 31 C -1.732 -3.4999 0.0 0
M  V30 32 C -3.4641 -4.4999 0.0 0
M  V30 33 C -1.732 -4.4999 0.0 0
M  V30 34 C -2.598 -4.9999 0.0 0
M  V30 35 F -2.598 -5.9999 0.0 0
M  V30 END ATOM
M  V30 BEGIN BOND
M  V30 1 1 1 2
M  V30 2 1 1 3
M  V30 3 2 2 4
M  V30 4 1 2 5
M  V30 5 1 3 6 CFG=3
M  V30 6 1 3 7
M  V30 7 2 6 8
M  V30 8 1 6 9
M  V30 9 2 7 10
M  V30 10 1 8 11
M  V30 11 2 9 12
M  V30 12 2 11 13
M  V30 13 1 13 14
M  V30 14 1 14 15
M  V30 15 1 15 16
M  V30 16 1 16 17
M  V30 17 1 17 18
M  V30 18 1 18 19
M  V30 19 2 19 20
M  V30 20 1 19 21
M  V30 21 1 20 22
M  V30 22 1 20 23
M  V30 23 2 21 24
M  V30 24 2 22 25
M  V30 25 1 23 26
M  V30 26 1 25 27
M  V30 27 1 26 28
M  V30 28 1 27 29
M  V30 29 2 29 30
M  V30 30 1 29 31
M  V30 31 1 30 32
M  V30 32 2 31 33
M  V30 33 2 32 34
M  V30 34 1 34 35
M  V30 35 1 5 7
M  V30 36 1 12 13
M  V30 37 1 24 25
M  V30 38 1 33 34
M  V30 END BOND
M  V30 BEGIN COLLECTION
M  V30 MDLV30/STEABS ATOMS=(1 3)
M  V30 END COLLECTION
M  V30 END CTAB
M  END
>  <Molecule ChEMBL ID>
CHEMBL1783044

>  <Smiles>
CCCc1cc(Oc2ccc(F)cc2)ccc1OCCCOc1ccc([C@H]2SC(=O)NC2=O)cc1

>  <IC50_nM>
735

>  <Assay Description>
Displacement of radio-labeled full agonist from PPARgamma receptor

$$$$
CHEMBL378705
Actelion Java MolfileCreator 2.0

  0  0  0  0  0  0              0 V3000
M  V30 BEGIN CTAB
M  V30 COUNTS 32 35 0 0 0
M  V30 BEGIN ATOM
M  V30 1 O 4.3301 0.0 0.0 0
M  V30 2 C 3.4641 -0.5 0.0 0
M  V30 3 O 3.4641 -1.5 0.0 0
M  V30 4 C 2.598 0.0 0.0 0 CFG=1
M  V30 5 O 1.732 -0.5 0.0 0
M  V30 6 C 2.598 1.0 0.0 0
M  V30 7 C 0.866 0.0 0.0 0
M  V30 8 C 1.732 1.5 0.0 0
M  V30 9 C 0.0 -0.5 0.0 0
M  V30 10 C 0.866 1.0 0.0 0
M  V30 11 C 1.732 2.5 0.0 0
M  V30 12 C 0.0 1.5 0.0 0
M  V30 13 C 0.866 3.0 0.0 0
M  V30 14 C 0.0 2.5 0.0 0
M  V30 15 C -0.951 1.1909 0.0 0
M  V30 16 N -0.951 2.809 0.0 0
M  V30 17 C -1.5388 2.0 0.0 0
M  V30 18 C -1.26 3.76 0.0 0
M  V30 19 C -2.2382 3.9679 0.0 0
M  V30 20 N -2.6449 4.8815 0.0 0
M  V30 21 C -2.9813 3.2988 0.0 0
M  V30 22 C -3.6394 4.777 0.0 0
M  V30 23 O -3.8473 3.7988 0.0 0
M  V30 24 C -2.8768 2.3043 0.0 0
M  V30 25 C -4.3086 5.5201 0.0 0
M  V30 26 C -3.9995 6.4712 0.0 0
M  V30 27 C -5.2867 5.3122 0.0 0
M  V30 28 O -3.0214 6.6791 0.0 0
M  V30 29 C -4.6687 7.2143 0.0 0
M  V30 30 C -5.9558 6.0553 0.0 0
M  V30 31 C -2.7124 7.6301 0.0 0
M  V30 32 C -5.6468 7.0064 0.0 0
M  V30 END ATOM
M  V30 BEGIN BOND
M  V30 1 2 1 2
M  V30 2 1 2 3
M  V30 3 1 2 4
M  V30 4 1 4 5 CFG=1
M  V30 5 1 4 6
M  V30 6 1 5 7
M  V30 7 1 6 8
M  V30 8 1 7 9
M  V30 9 2 8 10
M  V30 10 1 8 11
M  V30 11 1 10 12
M  V30 12 2 11 13
M  V30 13 2 12 14
M  V30 14 1 12 15
M  V30 15 1 14 16
M  V30 16 2 15 17
M  V30 17 1 16 18
M  V30 18 1 18 19
M  V30 19 1 19 20
M  V30 20 2 19 21
M  V30 21 2 20 22
M  V30 22 1 21 23
M  V30 23 1 21 24
M  V30 24 1 22 25
M  V30 25 2 25 26
M  V30 26 1 25 27
M  V30 27 1 26 28
M  V30 28 1 26 29
M  V30 29 2 27 30
M  V30 30 1 28 31
M  V30 31 2 29 32
M  V30 32 1 13 14
M  V30 33 1 16 17
M  V30 34 1 22 23
M  V30 35 1 30 32
M  V30 END BOND
M  V30 BEGIN COLLECTION
M  V30 MDLV30/STERAC1 ATOMS=(1 4)
M  V30 END COLLECTION
M  V30 END CTAB
M  END
>  <Molecule ChEMBL ID>
CHEMBL378705

>  <Smiles>
CCOC(Cc1ccc2c(ccn2Cc2nc(-c3ccccc3OC)oc2C)c1)C(=O)O

>  <IC50_nM>
742

>  <Assay Description>
Binding affinity to PPARgamma by radio ligand binding assay

$$$$
CHEMBL471829
Actelion Java MolfileCreator 2.0

  0  0  0  0  0  0              0 V3000
M  V30 BEGIN CTAB
M  V30 COUNTS 23 24 0 0 0
M  V30 BEGIN ATOM
M  V30 1 S 3.8971 0.0 0.0 0
M  V30 2 O 4.6471 1.299 0.0 0
M  V30 3 O 3.1471 1.299 0.0 0
M  V30 4 O 5.1961 -0.75 0.0 0
M  V30 5 C 2.598 -0.75 0.0 0
M  V30 6 C 6.4952 0.0 0.0 0
M  V30 7 C 1.299 0.0 0.0 0
M  V30 8 C 7.7942 -0.75 0.0 0
M  V30 9 C 6.4952 1.5 0.0 0
M  V30 10 C 0.0 -0.75 0.0 0
M  V30 11 C 9.0932 0.0 0.0 0
M  V30 12 C 7.7942 2.25 0.0 0
M  V30 13 C -1.299 0.0 0.0 0
M  V30 14 C 0.0 -2.25 0.0 0
M  V30 15 C 9.0932 1.5 0.0 0
M  V30 16 C -2.598 -0.75 0.0 0
M  V30 17 C -1.299 -3.0 0.0 0
M  V30 18 C 10.3923 2.25 0.0 0
M  V30 19 C -2.598 -2.25 0.0 0
M  V30 20 O 11.6913 1.5 0.0 0
M  V30 21 O 10.3923 3.75 0.0 0
M  V30 22 C 11.6913 4.5 0.0 0
M  V30 23 C 11.6913 6.0 0.0 0
M  V30 END ATOM
M  V30 BEGIN BOND
M  V30 1 2 1 2
M  V30 2 2 1 3
M  V30 3 1 1 4
M  V30 4 1 1 5
M  V30 5 1 4 6
M  V30 6 2 5 7
M  V30 7 2 6 8
M  V30 8 1 6 9
M  V30 9 1 7 10
M  V30 10 1 8 11
M  V30 11 2 9 12
M  V30 12 2 10 13
M  V30 13 1 10 14
M  V30 14 2 11 15
M  V30 15 1 13 16
M  V30 16 2 14 17
M  V30 17 1 15 18
M  V30 18 2 16 19
M  V30 19 2 18 20
M  V30 20 1 18 21
M  V30 21 1 21 22
M  V30 22 1 22 23
M  V30 23 1 12 15
M  V30 24 1 17 19
M  V30 END BOND
M  V30 END CTAB
M  END
>  <Molecule ChEMBL ID>
CHEMBL471829

>  <Smiles>
CCOC(=O)c1ccc(OS(=O)(=O)/C=C/c2ccccc2)cc1

>  <IC50_nM>
747

>  <Assay Description>
Displacement of [3H]BRL49653 from PPARgamma ligand binding domain by scintillation proximity assay

$$$$
CHEMBL324449
Actelion Java MolfileCreator 2.0

  0  0  0  0  0  0              0 V3000
M  V30 BEGIN CTAB
M  V30 COUNTS 35 38 0 0 0
M  V30 BEGIN ATOM
M  V30 1 O 15.5884 -0.7499 0.0 0
M  V30 2 C 14.2894 0.0 0.0 0
M  V30 3 O 14.2894 1.5 0.0 0
M  V30 4 C 12.9903 -0.75 0.0 0 CFG=1
M  V30 5 O 11.6913 0.0 0.0 0
M  V30 6 C 12.9903 -2.25 0.0 0
M  V30 7 C 12.9903 0.7499 0.0 0
M  V30 8 C 10.3923 -0.75 0.0 0
M  V30 9 C 11.6913 -3.0 0.0 0
M  V30 10 C 10.3923 -2.25 0.0 0
M  V30 11 C 9.0932 0.0 0.0 0
M  V30 12 C 9.0932 -3.0 0.0 0
M  V30 13 C 7.7942 -0.75 0.0 0
M  V30 14 C 7.7942 -2.25 0.0 0
M  V30 15 O 6.4951 0.0 0.0 0
M  V30 16 C 5.1961 -0.75 0.0 0
M  V30 17 C 3.8971 0.0 0.0 0
M  V30 18 C 2.598 -0.75 0.0 0
M  V30 19 O 1.299 0.0 0.0 0
M  V30 20 C 0.0 -0.75 0.0 0
M  V30 21 C -1.299 0.0 0.0 0
M  V30 22 C 0.0 -2.25 0.0 0
M  V30 23 C -2.598 -0.7499 0.0 0
M  V30 24 C -1.299 1.5 0.0 0
M  V30 25 C -1.299 -2.9999 0.0 0
M  V30 26 C -2.598 -2.2499 0.0 0
M  V30 27 C 0.0 2.25 0.0 0
M  V30 28 O -3.8971 -2.9999 0.0 0
M  V30 29 C 0.0 3.75 0.0 0
M  V30 30 C -3.8971 -4.4999 0.0 0
M  V30 31 C -5.1961 -5.2499 0.0 0
M  V30 32 C -2.598 -5.2499 0.0 0
M  V30 33 C -5.1961 -6.7499 0.0 0
M  V30 34 C -2.598 -6.7499 0.0 0
M  V30 35 C -3.8971 -7.4999 0.0 0
M  V30 END ATOM
M  V30 BEGIN BOND
M  V30 1 2 1 2
M  V30 2 1 2 3
M  V30 3 1 2 4
M  V30 4 1 4 5
M  V30 5 1 4 6
M  V30 6 1 4 7 CFG=1
M  V30 7 1 5 8
M  V30 8 1 6 9
M  V30 9 2 8 10
M  V30 10 1 8 11
M  V30 11 1 10 12
M  V30 12 2 11 13
M  V30 13 2 12 14
M  V30 14 1 13 15
M  V30 15 1 15 16
M  V30 16 1 16 17
M  V30 17 1 17 18
M  V30 18 1 18 19
M  V30 19 1 19 20
M  V30 20 2 20 21
M  V30 21 1 20 22
M  V30 22 1 21 23
M  V30 23 1 21 24
M  V30 24 2 22 25
M  V30 25 2 23 26
M  V30 26 1 24 27
M  V30 27 1 26 28
M  V30 28 1 27 29
M  V30 29 1 28 30
M  V30 30 2 30 31
M  V30 31 1 30 32
M  V30 32 1 31 33
M  V30 33 2 32 34
M  V30 34 2 33 35
M  V30 35 1 9 10
M  V30 36 1 13 14
M  V30 37 1 25 26
M  V30 38 1 34 35
M  V30 END BOND
M  V30 BEGIN COLLECTION
M  V30 MDLV30/STERAC1 ATOMS=(1 4)
M  V30 END COLLECTION
M  V30 END CTAB
M  END
>  <Molecule ChEMBL ID>
CHEMBL324449

>  <Smiles>
CCCc1cc(Oc2ccccc2)ccc1OCCCOc1ccc2c(c1)OC(C)(C(=O)O)CC2

>  <IC50_nM>
750

>  <Assay Description>
In vitro binding affinity for human peroxisome proliferator activated receptor gamma using scintillation proximity assay (SPA)

$$$$
CHEMBL394849
Actelion Java MolfileCreator 2.0

  0  0  0  0  0  0              0 V3000
M  V30 BEGIN CTAB
M  V30 COUNTS 33 36 0 0 0
M  V30 BEGIN ATOM
M  V30 1 O 8.6602 -4.5 0.0 0
M  V30 2 C 8.6602 -3.5 0.0 0
M  V30 3 N 9.5262 -3.0 0.0 0
M  V30 4 N 7.7942 -3.0 0.0 0
M  V30 5 C 9.5262 -1.9999 0.0 0
M  V30 6 C 7.7942 -2.0 0.0 0 CFG=2
M  V30 7 C 8.6602 -1.5 0.0 0
M  V30 8 C 10.3923 -1.4999 0.0 0
M  V30 9 C 6.9282 -1.5 0.0 0
M  V30 10 C 8.6602 -0.5 0.0 0
M  V30 11 C 6.9282 -0.5 0.0 0
M  V30 12 C 6.0621 -2.0 0.0 0
M  V30 13 O 9.5262 0.0 0.0 0
M  V30 14 O 7.7942 0.0 0.0 0
M  V30 15 C 6.0621 0.0 0.0 0
M  V30 16 C 5.1961 -1.5 0.0 0
M  V30 17 C 5.1961 -0.5 0.0 0
M  V30 18 O 4.3301 0.0 0.0 0
M  V30 19 C 3.4641 -0.5 0.0 0
M  V30 20 C 2.598 0.0 0.0 0
M  V30 21 C 1.732 -0.5 0.0 0
M  V30 22 O 0.866 0.0 0.0 0
M  V30 23 C 0.0 -0.5 0.0 0
M  V30 24 C -0.866 0.0 0.0 0
M  V30 25 C 0.0 -1.4999 0.0 0
M  V30 26 C -1.732 -0.4999 0.0 0
M  V30 27 C -0.866 1.0 0.0 0
M  V30 28 C -0.866 -1.9999 0.0 0
M  V30 29 N -1.732 -1.4999 0.0 0
M  V30 30 C -2.598 0.0 0.0 0
M  V30 31 C -1.732 1.5 0.0 0
M  V30 32 C -0.866 -2.9999 0.0 0
M  V30 33 C -2.598 1.0 0.0 0
M  V30 END ATOM
M  V30 BEGIN BOND
M  V30 1 2 1 2
M  V30 2 1 2 3
M  V30 3 1 2 4
M  V30 4 1 3 5
M  V30 5 1 4 6
M  V30 6 2 5 7
M  V30 7 1 5 8
M  V30 8 1 6 9 CFG=1
M  V30 9 1 7 10
M  V30 10 2 9 11
M  V30 11 1 9 12
M  V30 12 2 10 13
M  V30 13 1 10 14
M  V30 14 1 11 15
M  V30 15 2 12 16
M  V30 16 2 15 17
M  V30 17 1 17 18
M  V30 18 1 18 19
M  V30 19 1 19 20
M  V30 20 1 20 21
M  V30 21 1 21 22
M  V30 22 1 22 23
M  V30 23 1 23 24
M  V30 24 2 23 25
M  V30 25 1 24 26
M  V30 26 2 24 27
M  V30 27 1 25 28
M  V30 28 1 26 29
M  V30 29 2 26 30
M  V30 30 1 27 31
M  V30 31 1 28 32
M  V30 32 1 30 33
M  V30 33 1 6 7
M  V30 34 1 16 17
M  V30 35 2 28 29
M  V30 36 2 31 33
M  V30 END BOND
M  V30 BEGIN COLLECTION
M  V30 MDLV30/STERAC1 ATOMS=(1 6)
M  V30 END COLLECTION
M  V30 END CTAB
M  END
>  <Molecule ChEMBL ID>
CHEMBL394849

>  <Smiles>
CC1=C(C(=O)O)C(c2ccc(OCCCOc3cc(C)nc4ccccc34)cc2)NC(=O)N1

>  <IC50_nM>
750

>  <Assay Description>
Displacement of [3H]rosiglitazone from PPAR gamma

$$$$
CHEMBL1783062
Actelion Java MolfileCreator 2.0

  0  0  0  0  0  0              0 V3000
M  V30 BEGIN CTAB
M  V30 COUNTS 33 36 0 0 0
M  V30 BEGIN ATOM
M  V30 1 O 9.2836 2.1159 0.0 0
M  V30 2 C 8.8769 1.2024 0.0 0
M  V30 3 O 7.8987 0.9945 0.0 0
M  V30 4 N 9.3769 0.3364 0.0 0
M  V30 5 C 7.7942 0.0 0.0 0 CFG=2
M  V30 6 C 8.7077 -0.4067 0.0 0
M  V30 7 C 6.9282 -0.5 0.0 0
M  V30 8 O 8.9156 -1.3848 0.0 0
M  V30 9 C 6.0621 0.0 0.0 0
M  V30 10 C 6.9282 -1.5 0.0 0
M  V30 11 C 5.1961 -0.5 0.0 0
M  V30 12 C 6.0621 -2.0 0.0 0
M  V30 13 O 4.3301 0.0 0.0 0
M  V30 14 C 5.1961 -1.5 0.0 0
M  V30 15 C 3.4641 -0.5 0.0 0
M  V30 16 C 2.598 0.0 0.0 0
M  V30 17 C 1.732 -0.5 0.0 0
M  V30 18 O 0.866 0.0 0.0 0
M  V30 19 C 0.0 -0.5 0.0 0
M  V30 20 C -0.866 0.0 0.0 0
M  V30 21 C 0.0 -1.4999 0.0 0
M  V30 22 C -1.732 -0.4999 0.0 0
M  V30 23 C -0.866 1.0 0.0 0
M  V30 24 C -0.866 -1.9999 0.0 0
M  V30 25 C -1.732 -1.4999 0.0 0
M  V30 26 C 0.0 1.5 0.0 0
M  V30 27 C -2.598 -1.9999 0.0 0
M  V30 28 C 0.0 2.5 0.0 0
M  V30 29 C -3.4641 -1.4999 0.0 0
M  V30 30 C -2.598 -2.9999 0.0 0
M  V30 31 C -4.3301 -1.9999 0.0 0
M  V30 32 C -3.4641 -3.4999 0.0 0
M  V30 33 O -4.3301 -2.9999 0.0 0
M  V30 END ATOM
M  V30 BEGIN BOND
M  V30 1 2 1 2
M  V30 2 1 2 3
M  V30 3 1 2 4
M  V30 4 1 3 5
M  V30 5 1 4 6
M  V30 6 1 5 7 CFG=3
M  V30 7 2 6 8
M  V30 8 2 7 9
M  V30 9 1 7 10
M  V30 10 1 9 11
M  V30 11 2 10 12
M  V30 12 1 11 13
M  V30 13 2 11 14
M  V30 14 1 13 15
M  V30 15 1 15 16
M  V30 16 1 16 17
M  V30 17 1 17 18
M  V30 18 1 18 19
M  V30 19 2 19 20
M  V30 20 1 19 21
M  V30 21 1 20 22
M  V30 22 1 20 23
M  V30 23 2 21 24
M  V30 24 2 22 25
M  V30 25 1 23 26
M  V30 26 1 25 27
M  V30 27 1 26 28
M  V30 28 1 27 29
M  V30 29 1 27 30
M  V30 30 1 29 31
M  V30 31 1 30 32
M  V30 32 1 31 33
M  V30 33 1 5 6
M  V30 34 1 12 14
M  V30 35 1 24 25
M  V30 36 1 32 33
M  V30 END BOND
M  V30 BEGIN COLLECTION
M  V30 MDLV30/STEABS ATOMS=(1 5)
M  V30 END COLLECTION
M  V30 END CTAB
M  END
>  <Molecule ChEMBL ID>
CHEMBL1783062

>  <Smiles>
CCCc1cc(C2CCOCC2)ccc1OCCCOc1cccc([C@@H]2OC(=O)NC2=O)c1

>  <IC50_nM>
750

>  <Assay Description>
Displacement of radio-labeled full agonist from PPARgamma receptor

$$$$
CHEMBL394605
Actelion Java MolfileCreator 2.0

  0  0  0  0  0  0              0 V3000
M  V30 BEGIN CTAB
M  V30 COUNTS 30 33 0 0 0
M  V30 BEGIN ATOM
M  V30 1 O 9.5262 1.0 0.0 0
M  V30 2 C 8.6602 1.5 0.0 0
M  V30 3 N 8.6602 2.5 0.0 0
M  V30 4 N 7.7942 1.0 0.0 0
M  V30 5 C 7.7942 2.9999 0.0 0
M  V30 6 C 6.9282 1.4999 0.0 0 CFG=2
M  V30 7 C 6.9282 2.4999 0.0 0
M  V30 8 C 7.7942 4.0 0.0 0
M  V30 9 C 6.0621 0.9999 0.0 0
M  V30 10 C 6.0621 2.9999 0.0 0
M  V30 11 C 5.1961 1.4999 0.0 0
M  V30 12 C 6.0621 0.0 0.0 0
M  V30 13 O 6.0621 3.9999 0.0 0
M  V30 14 O 5.1961 2.4999 0.0 0
M  V30 15 C 4.3301 0.9999 0.0 0
M  V30 16 C 5.1961 -0.5 0.0 0
M  V30 17 C 4.3301 0.0 0.0 0
M  V30 18 O 3.4641 -0.5 0.0 0
M  V30 19 C 2.598 0.0 0.0 0
M  V30 20 C 1.732 -0.5 0.0 0
M  V30 21 C 0.866 0.0 0.0 0
M  V30 22 N 0.0 -0.5 0.0 0
M  V30 23 C -0.9135 -0.0932 0.0 0
M  V30 24 C -0.1045 -1.4945 0.0 0
M  V30 25 N -1.2225 0.8577 0.0 0
M  V30 26 C -1.5826 -0.8364 0.0 0
M  V30 27 C -1.0826 -1.7024 0.0 0
M  V30 28 C -2.2007 1.0657 0.0 0
M  V30 29 C -2.5608 -0.6284 0.0 0
M  V30 30 C -2.8698 0.3225 0.0 0
M  V30 END ATOM
M  V30 BEGIN BOND
M  V30 1 2 1 2
M  V30 2 1 2 3
M  V30 3 1 2 4
M  V30 4 1 3 5
M  V30 5 1 4 6
M  V30 6 2 5 7
M  V30 7 1 5 8
M  V30 8 1 6 9 CFG=1
M  V30 9 1 7 10
M  V30 10 2 9 11
M  V30 11 1 9 12
M  V30 12 2 10 13
M  V30 13 1 10 14
M  V30 14 1 11 15
M  V30 15 2 12 16
M  V30 16 2 15 17
M  V30 17 1 17 18
M  V30 18 1 18 19
M  V30 19 1 19 20
M  V30 20 1 20 21
M  V30 21 1 21 22
M  V30 22 1 22 23
M  V30 23 1 22 24
M  V30 24 2 23 25
M  V30 25 1 23 26
M  V30 26 2 24 27
M  V30 27 1 25 28
M  V30 28 2 26 29
M  V30 29 2 28 30
M  V30 30 1 6 7
M  V30 31 1 16 17
M  V30 32 1 26 27
M  V30 33 1 29 30
M  V30 END BOND
M  V30 BEGIN COLLECTION
M  V30 MDLV30/STERAC1 ATOMS=(1 6)
M  V30 END COLLECTION
M  V30 END CTAB
M  END
>  <Molecule ChEMBL ID>
CHEMBL394605

>  <Smiles>
CC1=C(C(=O)O)C(c2ccc(OCCCn3ccc4cccnc43)cc2)NC(=O)N1

>  <IC50_nM>
750

>  <Assay Description>
Displacement of [3H]rosiglitazone from PPAR gamma

$$$$
CHEMBL514173
Actelion Java MolfileCreator 2.0

  0  0  0  0  0  0              0 V3000
M  V30 BEGIN CTAB
M  V30 COUNTS 36 40 0 0 0
M  V30 BEGIN ATOM
M  V30 1 O 8.0526 -2.8682 0.0 0
M  V30 2 C 9.4484 -3.2503 0.0 0
M  V30 3 O 9.7607 -4.7197 0.0 0
M  V30 4 C 10.5647 -2.2451 0.0 0
M  V30 5 N 12.0341 -2.5574 0.0 0
M  V30 6 C 10.4077 -0.7511 0.0 0
M  V30 7 N 12.7853 -1.2564 0.0 0
M  V30 8 N 11.7801 -0.1401 0.0 0
M  V30 9 C 9.1067 0.0 0.0 0
M  V30 10 C 12.0924 1.3293 0.0 0
M  V30 11 C 7.8058 -0.7511 0.0 0
M  V30 12 C 13.5211 1.7935 0.0 0
M  V30 13 C 10.976 2.3344 0.0 0
M  V30 14 C 6.5048 0.0 0.0 0
M  V30 15 C 7.7893 -2.2122 0.0 0
M  V30 16 C 13.8334 3.2629 0.0 0
M  V30 17 C 11.2884 3.8038 0.0 0
M  V30 18 C 5.2038 -0.7511 0.0 0
M  V30 19 C 6.5048 -3.0044 0.0 0
M  V30 20 C 12.7171 4.2681 0.0 0
M  V30 21 O 3.9029 0.0 0.0 0
M  V30 22 C 5.2038 -2.2533 0.0 0
M  V30 23 C 2.6019 -0.7511 0.0 0
M  V30 24 C 1.3009 0.0 0.0 0
M  V30 25 C 0.0 -0.7511 0.0 0
M  V30 26 N -1.3723 -0.1401 0.0 0
M  V30 27 C -0.157 -2.2451 0.0 0
M  V30 28 C -2.3775 -1.2564 0.0 0
M  V30 29 O -1.6264 -2.5574 0.0 0
M  V30 30 C 0.9593 -3.2503 0.0 0
M  V30 31 C -3.8715 -1.0994 0.0 0
M  V30 32 C -4.4825 0.2729 0.0 0
M  V30 33 C -4.7545 -2.3147 0.0 0
M  V30 34 C -5.9765 0.4299 0.0 0
M  V30 35 C -6.2485 -2.1577 0.0 0
M  V30 36 C -6.8595 -0.7854 0.0 0
M  V30 END ATOM
M  V30 BEGIN BOND
M  V30 1 2 1 2
M  V30 2 1 2 3
M  V30 3 1 2 4
M  V30 4 1 4 5
M  V30 5 2 4 6
M  V30 6 2 5 7
M  V30 7 1 6 8
M  V30 8 1 6 9
M  V30 9 1 8 10
M  V30 10 1 9 11
M  V30 11 2 10 12
M  V30 12 1 10 13
M  V30 13 2 11 14
M  V30 14 1 11 15
M  V30 15 1 12 16
M  V30 16 2 13 17
M  V30 17 1 14 18
M  V30 18 2 15 19
M  V30 19 2 16 20
M  V30 20 1 18 21
M  V30 21 2 18 22
M  V30 22 1 21 23
M  V30 23 1 23 24
M  V30 24 1 24 25
M  V30 25 1 25 26
M  V30 26 2 25 27
M  V30 27 2 26 28
M  V30 28 1 27 29
M  V30 29 1 27 30
M  V30 30 1 28 31
M  V30 31 2 31 32
M  V30 32 1 31 33
M  V30 33 1 32 34
M  V30 34 2 33 35
M  V30 35 2 34 36
M  V30 36 1 7 8
M  V30 37 1 17 20
M  V30 38 1 19 22
M  V30 39 1 28 29
M  V30 40 1 35 36
M  V30 END BOND
M  V30 END CTAB
M  END
>  <Molecule ChEMBL ID>
CHEMBL514173

>  <Smiles>
Cc1oc(-c2ccccc2)nc1CCOc1cccc(Cc2c(C(=O)O)nnn2-c2ccccc2)c1

>  <IC50_nM>
750

>  <Assay Description>
Binding affinity to PPARgamma by fluorescence polarization assay

$$$$
CHEMBL117918
Actelion Java MolfileCreator 2.0

  0  0  0  0  0  0              0 V3000
M  V30 BEGIN CTAB
M  V30 COUNTS 33 36 0 0 0
M  V30 BEGIN ATOM
M  V30 1 O 9.2836 2.1159 0.0 0
M  V30 2 C 8.8769 1.2024 0.0 0
M  V30 3 O 7.8987 0.9945 0.0 0
M  V30 4 N 9.3769 0.3364 0.0 0
M  V30 5 C 7.7942 0.0 0.0 0 CFG=1
M  V30 6 C 8.7077 -0.4067 0.0 0
M  V30 7 C 6.9282 -0.5 0.0 0
M  V30 8 O 8.9156 -1.3848 0.0 0
M  V30 9 C 6.0621 0.0 0.0 0
M  V30 10 C 6.9282 -1.5 0.0 0
M  V30 11 C 5.1961 -0.5 0.0 0
M  V30 12 C 6.0621 -2.0 0.0 0
M  V30 13 O 4.3301 0.0 0.0 0
M  V30 14 C 5.1961 -1.5 0.0 0
M  V30 15 C 3.4641 -0.5 0.0 0
M  V30 16 C 2.598 0.0 0.0 0
M  V30 17 C 1.732 -0.5 0.0 0
M  V30 18 O 0.866 0.0 0.0 0
M  V30 19 C 0.0 -0.5 0.0 0
M  V30 20 C -0.866 0.0 0.0 0
M  V30 21 C 0.0 -1.4999 0.0 0
M  V30 22 C -1.732 -0.4999 0.0 0
M  V30 23 C -0.866 1.0 0.0 0
M  V30 24 C -0.866 -1.9999 0.0 0
M  V30 25 C -1.732 -1.4999 0.0 0
M  V30 26 C 0.0 1.5 0.0 0
M  V30 27 C -2.598 -1.9999 0.0 0
M  V30 28 C 0.0 2.5 0.0 0
M  V30 29 C -3.4641 -1.4999 0.0 0
M  V30 30 C -2.598 -2.9999 0.0 0
M  V30 31 C -4.3301 -1.9999 0.0 0
M  V30 32 C -3.4641 -3.4999 0.0 0
M  V30 33 O -4.3301 -2.9999 0.0 0
M  V30 END ATOM
M  V30 BEGIN BOND
M  V30 1 2 1 2
M  V30 2 1 2 3
M  V30 3 1 2 4
M  V30 4 1 3 5
M  V30 5 1 4 6
M  V30 6 1 5 7 CFG=1
M  V30 7 2 6 8
M  V30 8 2 7 9
M  V30 9 1 7 10
M  V30 10 1 9 11
M  V30 11 2 10 12
M  V30 12 1 11 13
M  V30 13 2 11 14
M  V30 14 1 13 15
M  V30 15 1 15 16
M  V30 16 1 16 17
M  V30 17 1 17 18
M  V30 18 1 18 19
M  V30 19 2 19 20
M  V30 20 1 19 21
M  V30 21 1 20 22
M  V30 22 1 20 23
M  V30 23 2 21 24
M  V30 24 2 22 25
M  V30 25 1 23 26
M  V30 26 1 25 27
M  V30 27 1 26 28
M  V30 28 1 27 29
M  V30 29 1 27 30
M  V30 30 1 29 31
M  V30 31 1 30 32
M  V30 32 1 31 33
M  V30 33 1 5 6
M  V30 34 1 12 14
M  V30 35 1 24 25
M  V30 36 1 32 33
M  V30 END BOND
M  V30 BEGIN COLLECTION
M  V30 MDLV30/STERAC1 ATOMS=(1 5)
M  V30 END COLLECTION
M  V30 END CTAB
M  END
>  <Molecule ChEMBL ID>
CHEMBL117918

>  <Smiles>
CCCc1cc(C2CCOCC2)ccc1OCCCOc1cccc(C2OC(=O)NC2=O)c1

>  <IC50_nM>
750

>  <Assay Description>
In vitro binding affinity against human peroxisome proliferator activated receptor gamma

$$$$
CHEMBL371087
Actelion Java MolfileCreator 2.0

  0  0  0  0  0  0              0 V3000
M  V30 BEGIN CTAB
M  V30 COUNTS 32 35 0 0 0
M  V30 BEGIN ATOM
M  V30 1 O 10.2967 -2.4964 0.0 0
M  V30 2 C 9.3186 -2.7043 0.0 0
M  V30 3 O 9.0096 -3.6554 0.0 0
M  V30 4 C 8.6494 -1.9612 0.0 0
M  V30 5 N 7.6713 -2.1691 0.0 0
M  V30 6 C 6.9282 -1.4999 0.0 0
M  V30 7 C 7.2646 -3.0826 0.0 0
M  V30 8 C 6.0621 -2.0 0.0 0
M  V30 9 C 6.9282 -0.5 0.0 0
M  V30 10 C 6.27 -2.9781 0.0 0
M  V30 11 C 5.1961 -1.5 0.0 0
M  V30 12 C 6.0621 0.0 0.0 0
M  V30 13 C 5.1961 -0.5 0.0 0
M  V30 14 O 4.3301 0.0 0.0 0
M  V30 15 C 3.4641 -0.5 0.0 0
M  V30 16 C 2.598 0.0 0.0 0
M  V30 17 C 1.732 -0.5 0.0 0
M  V30 18 O 0.866 0.0 0.0 0
M  V30 19 C 0.0 -0.5 0.0 0
M  V30 20 C -0.866 0.0 0.0 0
M  V30 21 C 0.0 -1.5 0.0 0
M  V30 22 C -1.732 -0.4999 0.0 0
M  V30 23 C -0.866 1.0 0.0 0
M  V30 24 C -0.866 -1.9999 0.0 0
M  V30 25 N -2.6831 -0.1909 0.0 0
M  V30 26 C -1.732 -1.4999 0.0 0
M  V30 27 C 0.0 1.5 0.0 0
M  V30 28 C -3.2708 -0.9999 0.0 0
M  V30 29 C -2.6831 -1.809 0.0 0
M  V30 30 C 0.0 2.5 0.0 0
M  V30 31 C -2.9921 -2.76 0.0 0
M  V30 32 N -3.3011 -3.7111 0.0 0
M  V30 END ATOM
M  V30 BEGIN BOND
M  V30 1 2 1 2
M  V30 2 1 2 3
M  V30 3 1 2 4
M  V30 4 1 4 5
M  V30 5 1 5 6
M  V30 6 1 5 7
M  V30 7 2 6 8
M  V30 8 1 6 9
M  V30 9 2 7 10
M  V30 10 1 8 11
M  V30 11 2 9 12
M  V30 12 2 11 13
M  V30 13 1 13 14
M  V30 14 1 14 15
M  V30 15 1 15 16
M  V30 16 1 16 17
M  V30 17 1 17 18
M  V30 18 1 18 19
M  V30 19 2 19 20
M  V30 20 1 19 21
M  V30 21 1 20 22
M  V30 22 1 20 23
M  V30 23 2 21 24
M  V30 24 1 22 25
M  V30 25 2 22 26
M  V30 26 1 23 27
M  V30 27 1 25 28
M  V30 28 1 26 29
M  V30 29 1 27 30
M  V30 30 1 29 31
M  V30 31 3 31 32
M  V30 32 1 8 10
M  V30 33 1 12 13
M  V30 34 1 24 26
M  V30 35 2 28 29
M  V30 END BOND
M  V30 END CTAB
M  END
>  <Molecule ChEMBL ID>
CHEMBL371087

>  <Smiles>
CCCc1c(OCCCOc2ccc3c(ccn3CC(=O)O)c2)ccc2c(C#N)c[nH]c12

>  <IC50_nM>
759

>  <Assay Description>
Displacement of [3H]rosiglitazone from human PPAR gamma by SPA assay

$$$$
CHEMBL230567
Actelion Java MolfileCreator 2.0

  0  0  0  0  0  0              0 V3000
M  V30 BEGIN CTAB
M  V30 COUNTS 32 35 0 0 0
M  V30 BEGIN ATOM
M  V30 1 O 9.5262 1.0 0.0 0
M  V30 2 C 8.6602 1.5 0.0 0
M  V30 3 N 8.6602 2.5 0.0 0
M  V30 4 N 7.7942 1.0 0.0 0
M  V30 5 C 7.7942 2.9999 0.0 0
M  V30 6 C 6.9282 1.4999 0.0 0 CFG=2
M  V30 7 C 6.9282 2.4999 0.0 0
M  V30 8 C 7.7942 4.0 0.0 0
M  V30 9 C 6.0621 0.9999 0.0 0
M  V30 10 C 6.0621 2.9999 0.0 0
M  V30 11 C 5.1961 1.4999 0.0 0
M  V30 12 C 6.0621 0.0 0.0 0
M  V30 13 O 6.0621 3.9999 0.0 0
M  V30 14 O 5.1961 2.4999 0.0 0
M  V30 15 C 4.3301 0.9999 0.0 0
M  V30 16 C 5.1961 -0.5 0.0 0
M  V30 17 C 4.3301 0.0 0.0 0
M  V30 18 O 3.4641 -0.5 0.0 0
M  V30 19 C 2.598 0.0 0.0 0
M  V30 20 C 1.732 -0.5 0.0 0
M  V30 21 O 0.866 0.0 0.0 0
M  V30 22 C 0.0 -0.5 0.0 0
M  V30 23 C -0.866 0.0 0.0 0
M  V30 24 C 0.0 -1.4999 0.0 0
M  V30 25 C -1.732 -0.4999 0.0 0
M  V30 26 C -0.866 1.0 0.0 0
M  V30 27 C -0.866 -1.9999 0.0 0
M  V30 28 N -1.732 -1.4999 0.0 0
M  V30 29 C -2.598 0.0 0.0 0
M  V30 30 C -1.732 1.5 0.0 0
M  V30 31 C -0.866 -2.9999 0.0 0
M  V30 32 C -2.598 1.0 0.0 0
M  V30 END ATOM
M  V30 BEGIN BOND
M  V30 1 2 1 2
M  V30 2 1 2 3
M  V30 3 1 2 4
M  V30 4 1 3 5
M  V30 5 1 4 6
M  V30 6 2 5 7
M  V30 7 1 5 8
M  V30 8 1 6 9 CFG=1
M  V30 9 1 7 10
M  V30 10 2 9 11
M  V30 11 1 9 12
M  V30 12 2 10 13
M  V30 13 1 10 14
M  V30 14 1 11 15
M  V30 15 2 12 16
M  V30 16 2 15 17
M  V30 17 1 17 18
M  V30 18 1 18 19
M  V30 19 1 19 20
M  V30 20 1 20 21
M  V30 21 1 21 22
M  V30 22 1 22 23
M  V30 23 2 22 24
M  V30 24 1 23 25
M  V30 25 2 23 26
M  V30 26 1 24 27
M  V30 27 1 25 28
M  V30 28 2 25 29
M  V30 29 1 26 30
M  V30 30 1 27 31
M  V30 31 1 29 32
M  V30 32 1 6 7
M  V30 33 1 16 17
M  V30 34 2 27 28
M  V30 35 2 30 32
M  V30 END BOND
M  V30 BEGIN COLLECTION
M  V30 MDLV30/STERAC1 ATOMS=(1 6)
M  V30 END COLLECTION
M  V30 END CTAB
M  END
>  <Molecule ChEMBL ID>
CHEMBL230567

>  <Smiles>
CC1=C(C(=O)O)C(c2ccc(OCCOc3cc(C)nc4ccccc34)cc2)NC(=O)N1

>  <IC50_nM>
760

>  <Assay Description>
Displacement of [3H]rosiglitazone from PPAR gamma

$$$$
CHEMBL3596270
Actelion Java MolfileCreator 2.0

  0  0  0  0  0  0              0 V3000
M  V30 BEGIN CTAB
M  V30 COUNTS 32 35 0 0 0
M  V30 BEGIN ATOM
M  V30 1 Cl -0.866 0.9999 0.0 0
M  V30 2 C 0.0 1.4999 0.0 0
M  V30 3 C 0.866 0.9999 0.0 0
M  V30 4 C 0.0 2.4999 0.0 0
M  V30 5 C 1.732 1.5 0.0 0
M  V30 6 C 0.866 0.0 0.0 0
M  V30 7 C 0.866 3.0 0.0 0
M  V30 8 C 1.732 2.4999 0.0 0
M  V30 9 C 2.598 1.0 0.0 0
M  V30 10 O 1.732 -0.5 0.0 0
M  V30 11 C 0.0 -0.5 0.0 0
M  V30 12 F 3.098 1.866 0.0 0
M  V30 13 F 3.4641 0.5 0.0 0
M  V30 14 F 2.098 0.1339 0.0 0
M  V30 15 N -0.9135 -0.0932 0.0 0
M  V30 16 N -0.1045 -1.4945 0.0 0
M  V30 17 C -1.5826 -0.8364 0.0 0
M  V30 18 C -1.0826 -1.7024 0.0 0
M  V30 19 C 0.5646 -2.2376 0.0 0
M  V30 20 C -2.5771 -0.7318 0.0 0
M  V30 21 C -1.3916 -2.6534 0.0 0
M  V30 22 C 0.2555 -3.1887 0.0 0
M  V30 23 C -2.9839 0.1816 0.0 0
M  V30 24 C -3.1649 -1.5408 0.0 0
M  V30 25 C -0.7225 -3.3966 0.0 0
M  V30 26 F -2.3961 0.9906 0.0 0
M  V30 27 C -3.9784 0.2861 0.0 0
M  V30 28 C -4.1595 -1.4363 0.0 0
M  V30 29 C -4.5662 -0.5228 0.0 0
M  V30 30 C -5.5607 -0.4182 0.0 0
M  V30 31 O -5.9675 0.4952 0.0 0
M  V30 32 O -6.1485 -1.2273 0.0 0
M  V30 END ATOM
M  V30 BEGIN BOND
M  V30 1 1 1 2
M  V30 2 2 2 3
M  V30 3 1 2 4
M  V30 4 1 3 5
M  V30 5 1 3 6
M  V30 6 2 4 7
M  V30 7 2 5 8
M  V30 8 1 5 9
M  V30 9 2 6 10
M  V30 10 1 6 11
M  V30 11 1 9 12
M  V30 12 1 9 13
M  V30 13 1 9 14
M  V30 14 2 11 15
M  V30 15 1 11 16
M  V30 16 1 15 17
M  V30 17 1 16 18
M  V30 18 1 16 19
M  V30 19 1 17 20
M  V30 20 1 18 21
M  V30 21 1 19 22
M  V30 22 2 20 23
M  V30 23 1 20 24
M  V30 24 1 21 25
M  V30 25 1 23 26
M  V30 26 1 23 27
M  V30 27 2 24 28
M  V30 28 2 27 29
M  V30 29 1 29 30
M  V30 30 2 30 31
M  V30 31 1 30 32
M  V30 32 1 7 8
M  V30 33 2 17 18
M  V30 34 1 22 25
M  V30 35 1 28 29
M  V30 END BOND
M  V30 END CTAB
M  END
>  <Molecule ChEMBL ID>
CHEMBL3596270

>  <Smiles>
O=C(O)c1ccc(-c2nc(C(=O)c3c(Cl)cccc3C(F)(F)F)n3c2CCCC3)c(F)c1

>  <IC50_nM>
760

>  <Assay Description>
Displacement of fluormone PPARgamma green from GST-tagged human PPARgamma-LBD after 2 hrs by fluorescence polarization assay

$$$$
CHEMBL247926
Actelion Java MolfileCreator 2.0

  0  0  0  0  0  0              0 V3000
M  V30 BEGIN CTAB
M  V30 COUNTS 38 42 0 0 0
M  V30 BEGIN ATOM
M  V30 1 O 5.1961 2.25 0.0 0
M  V30 2 C 3.8971 1.5 0.0 0
M  V30 3 O 2.598 2.25 0.0 0
M  V30 4 C 3.8971 0.0 0.0 0
M  V30 5 N 2.598 -0.75 0.0 0
M  V30 6 C 2.598 -2.25 0.0 0
M  V30 7 C 1.299 0.0 0.0 0
M  V30 8 C 3.8971 -3.0 0.0 0
M  V30 9 C 0.0 -0.75 0.0 0
M  V30 10 C 5.1961 -2.2499 0.0 0
M  V30 11 C 3.8971 -4.5 0.0 0
M  V30 12 C -1.299 0.0 0.0 0
M  V30 13 C 0.0 -2.25 0.0 0
M  V30 14 C 6.4951 -2.9999 0.0 0
M  V30 15 C 5.1961 -0.75 0.0 0
M  V30 16 C 5.1961 -5.25 0.0 0
M  V30 17 C -2.598 -0.7499 0.0 0
M  V30 18 C -1.299 -2.9999 0.0 0
M  V30 19 C 6.4951 -4.5 0.0 0
M  V30 20 C 7.7942 -2.2499 0.0 0
M  V30 21 C 6.4951 0.0 0.0 0
M  V30 22 C -2.598 -2.2499 0.0 0
M  V30 23 C 7.7942 -0.7499 0.0 0
M  V30 24 O -3.8971 -2.9999 0.0 0
M  V30 25 C -3.8971 -4.4999 0.0 0
M  V30 26 C -5.1961 -5.2499 0.0 0
M  V30 27 C -5.1961 -6.7499 0.0 0
M  V30 28 N -6.4096 -7.6316 0.0 0
M  V30 29 C -3.9826 -7.6316 0.0 0
M  V30 30 C -5.9461 -9.0582 0.0 0
M  V30 31 O -4.4461 -9.0582 0.0 0
M  V30 32 C -2.556 -7.1681 0.0 0
M  V30 33 C -6.8278 -10.2717 0.0 0
M  V30 34 C -8.3196 -10.1149 0.0 0
M  V30 35 C -6.2177 -11.6421 0.0 0
M  V30 36 C -9.2012 -11.3285 0.0 0
M  V30 37 C -7.0994 -12.8556 0.0 0
M  V30 38 C -8.5911 -12.6988 0.0 0
M  V30 END ATOM
M  V30 BEGIN BOND
M  V30 1 2 1 2
M  V30 2 1 2 3
M  V30 3 1 2 4
M  V30 4 1 4 5
M  V30 5 1 5 6
M  V30 6 1 5 7
M  V30 7 1 6 8
M  V30 8 1 7 9
M  V30 9 1 8 10
M  V30 10 2 8 11
M  V30 11 2 9 12
M  V30 12 1 9 13
M  V30 13 1 10 14
M  V30 14 2 10 15
M  V30 15 1 11 16
M  V30 16 1 12 17
M  V30 17 2 13 18
M  V30 18 1 14 19
M  V30 19 2 14 20
M  V30 20 1 15 21
M  V30 21 2 17 22
M  V30 22 1 20 23
M  V30 23 1 22 24
M  V30 24 1 24 25
M  V30 25 1 25 26
M  V30 26 1 26 27
M  V30 27 1 27 28
M  V30 28 2 27 29
M  V30 29 2 28 30
M  V30 30 1 29 31
M  V30 31 1 29 32
M  V30 32 1 30 33
M  V30 33 2 33 34
M  V30 34 1 33 35
M  V30 35 1 34 36
M  V30 36 2 35 37
M  V30 37 2 36 38
M  V30 38 2 16 19
M  V30 39 1 18 22
M  V30 40 2 21 23
M  V30 41 1 30 31
M  V30 42 1 37 38
M  V30 END BOND
M  V30 END CTAB
M  END
>  <Molecule ChEMBL ID>
CHEMBL247926

>  <Smiles>
Cc1oc(-c2ccccc2)nc1CCOc1ccc(CN(CC(=O)O)Cc2cccc3ccccc23)cc1

>  <IC50_nM>
767

>  <Assay Description>
Displacement of fluorescein labeled ligand from PPARgamma receptor by fluorescence polarization assay

$$$$
CHEMBL385585
Actelion Java MolfileCreator 2.0

  0  0  0  0  0  0              0 V3000
M  V30 BEGIN CTAB
M  V30 COUNTS 44 48 0 0 0
M  V30 BEGIN ATOM
M  V30 1 S 3.8971 0.0 0.0 0
M  V30 2 O 4.6471 1.299 0.0 0
M  V30 3 O 3.1471 1.299 0.0 0
M  V30 4 N 2.598 -0.75 0.0 0
M  V30 5 C 5.1961 -0.75 0.0 0
M  V30 6 C 1.299 0.0 0.0 0
M  V30 7 C 5.1961 -2.25 0.0 0
M  V30 8 C 6.4951 0.0 0.0 0
M  V30 9 O 1.299 1.5 0.0 0
M  V30 10 C 0.0 -0.75 0.0 0
M  V30 11 C 6.4951 -3.0 0.0 0
M  V30 12 C 7.7942 -0.75 0.0 0
M  V30 13 N -1.3703 -0.1398 0.0 0
M  V30 14 C -0.1567 -2.2417 0.0 0
M  V30 15 C 7.7942 -2.25 0.0 0
M  V30 16 C 6.4951 -4.5 0.0 0
M  V30 17 C -2.374 -1.2546 0.0 0
M  V30 18 C -1.6821 1.3273 0.0 0
M  V30 19 C -1.624 -2.5536 0.0 0
M  V30 20 F 7.9951 -4.5 0.0 0
M  V30 21 F 6.4951 -6.0 0.0 0
M  V30 22 F 4.9951 -4.5 0.0 0
M  V30 23 C -3.874 -1.2546 0.0 0
M  V30 24 C -3.1087 1.7908 0.0 0
M  V30 25 C -2.374 -3.8526 0.0 0
M  V30 26 C -4.624 -2.5536 0.0 0
M  V30 27 C -3.4206 3.258 0.0 0
M  V30 28 C -4.2234 0.7871 0.0 0
M  V30 29 C -3.874 -3.8526 0.0 0
M  V30 30 C -4.8472 3.7216 0.0 0
M  V30 31 C -5.65 1.2506 0.0 0
M  V30 32 O -4.624 -5.1517 0.0 0
M  V30 33 C -5.9619 2.7179 0.0 0
M  V30 34 C -5.159 5.1888 0.0 0
M  V30 35 C -6.124 -5.1517 0.0 0
M  V30 36 F -6.6263 4.8769 0.0 0
M  V30 37 F -5.4709 6.656 0.0 0
M  V30 38 F -3.6918 5.5006 0.0 0
M  V30 39 C -6.874 -6.4507 0.0 0
M  V30 40 C -8.374 -6.4507 0.0 0
M  V30 41 C -6.124 -7.7498 0.0 0
M  V30 42 C -9.124 -7.7498 0.0 0
M  V30 43 C -6.874 -9.0488 0.0 0
M  V30 44 C -8.374 -9.0488 0.0 0
M  V30 END ATOM
M  V30 BEGIN BOND
M  V30 1 2 1 2
M  V30 2 2 1 3
M  V30 3 1 1 4
M  V30 4 1 1 5
M  V30 5 1 4 6
M  V30 6 2 5 7
M  V30 7 1 5 8
M  V30 8 2 6 9
M  V30 9 1 6 10
M  V30 10 1 7 11
M  V30 11 2 8 12
M  V30 12 1 10 13
M  V30 13 2 10 14
M  V30 14 2 11 15
M  V30 15 1 11 16
M  V30 16 1 13 17
M  V30 17 1 13 18
M  V30 18 1 14 19
M  V30 19 1 16 20
M  V30 20 1 16 21
M  V30 21 1 16 22
M  V30 22 1 17 23
M  V30 23 1 18 24
M  V30 24 1 19 25
M  V30 25 2 23 26
M  V30 26 2 24 27
M  V30 27 1 24 28
M  V30 28 2 25 29
M  V30 29 1 27 30
M  V30 30 2 28 31
M  V30 31 1 29 32
M  V30 32 2 30 33
M  V30 33 1 30 34
M  V30 34 1 32 35
M  V30 35 1 34 36
M  V30 36 1 34 37
M  V30 37 1 34 38
M  V30 38 1 35 39
M  V30 39 2 39 40
M  V30 40 1 39 41
M  V30 41 1 40 42
M  V30 42 2 41 43
M  V30 43 2 42 44
M  V30 44 1 12 15
M  V30 45 2 17 19
M  V30 46 1 26 29
M  V30 47 1 31 33
M  V30 48 1 43 44
M  V30 END BOND
M  V30 END CTAB
M  END
>  <Molecule ChEMBL ID>
CHEMBL385585

>  <Smiles>
O=C(NS(=O)(=O)c1cccc(C(F)(F)F)c1)c1cc2cc(OCc3ccccc3)ccc2n1Cc1cccc(C(F)(F)F)c1

>  <IC50_nM>
770

>  <Assay Description>
Displacement of Fluormone from PPAR gamma

$$$$
CHEMBL428748
Actelion Java MolfileCreator 2.0

  0  0  0  0  0  0              0 V3000
M  V30 BEGIN CTAB
M  V30 COUNTS 36 39 0 0 0
M  V30 BEGIN ATOM
M  V30 1 O 1.732 -4.5 0.0 0
M  V30 2 C 1.732 -3.4999 0.0 0
M  V30 3 O 0.866 -2.9999 0.0 0
M  V30 4 C 2.598 -2.9999 0.0 0
M  V30 5 N 2.598 -2.0 0.0 0
M  V30 6 C 3.4641 -1.5 0.0 0
M  V30 7 C 1.732 -1.4999 0.0 0
M  V30 8 C 4.3301 -2.0 0.0 0
M  V30 9 C 1.732 -0.4999 0.0 0
M  V30 10 C 4.3301 -3.0 0.0 0
M  V30 11 C 5.1961 -1.5 0.0 0
M  V30 12 C 0.866 0.0 0.0 0
M  V30 13 C 5.1961 -3.5 0.0 0
M  V30 14 C 6.0621 -2.0 0.0 0
M  V30 15 C 0.866 1.0 0.0 0
M  V30 16 O 5.1961 -4.5 0.0 0
M  V30 17 C 6.0621 -3.0 0.0 0
M  V30 18 C 0.0 1.5 0.0 0
M  V30 19 C 1.732 1.5 0.0 0
M  V30 20 C 6.0621 -5.0 0.0 0
M  V30 21 C 0.0 2.5 0.0 0
M  V30 22 C 1.732 2.5 0.0 0
M  V30 23 C 6.0621 -6.0 0.0 0
M  V30 24 C 0.866 3.0 0.0 0
M  V30 25 C 6.9282 -6.5 0.0 0
M  V30 26 N 7.0327 -7.4945 0.0 0
M  V30 27 C 7.8417 -6.0932 0.0 0
M  V30 28 C 8.0108 -7.7024 0.0 0
M  V30 29 O 8.5108 -6.8364 0.0 0
M  V30 30 C 8.0496 -5.1151 0.0 0
M  V30 31 C 8.4176 -8.6159 0.0 0
M  V30 32 C 7.8298 -9.4249 0.0 0
M  V30 33 C 9.4121 -8.7205 0.0 0
M  V30 34 C 8.2365 -10.3385 0.0 0
M  V30 35 C 9.8188 -9.634 0.0 0
M  V30 36 C 9.231 -10.443 0.0 0
M  V30 END ATOM
M  V30 BEGIN BOND
M  V30 1 2 1 2
M  V30 2 1 2 3
M  V30 3 1 2 4
M  V30 4 1 4 5
M  V30 5 1 5 6
M  V30 6 1 5 7
M  V30 7 1 6 8
M  V30 8 1 7 9
M  V30 9 2 8 10
M  V30 10 1 8 11
M  V30 11 1 9 12
M  V30 12 1 10 13
M  V30 13 2 11 14
M  V30 14 1 12 15
M  V30 15 1 13 16
M  V30 16 2 13 17
M  V30 17 2 15 18
M  V30 18 1 15 19
M  V30 19 1 16 20
M  V30 20 1 18 21
M  V30 21 2 19 22
M  V30 22 1 20 23
M  V30 23 2 21 24
M  V30 24 1 23 25
M  V30 25 1 25 26
M  V30 26 2 25 27
M  V30 27 2 26 28
M  V30 28 1 27 29
M  V30 29 1 27 30
M  V30 30 1 28 31
M  V30 31 2 31 32
M  V30 32 1 31 33
M  V30 33 1 32 34
M  V30 34 2 33 35
M  V30 35 2 34 36
M  V30 36 1 14 17
M  V30 37 1 22 24
M  V30 38 1 28 29
M  V30 39 1 35 36
M  V30 END BOND
M  V30 END CTAB
M  END
>  <Molecule ChEMBL ID>
CHEMBL428748

>  <Smiles>
Cc1oc(-c2ccccc2)nc1CCOc1cccc(CN(CCCc2ccccc2)CC(=O)O)c1

>  <IC50_nM>
773

>  <Assay Description>
Displacement of fluorescein labeled ligand from PPARgamma receptor by fluorescence polarization assay

$$$$
CHEMBL173828
Actelion Java MolfileCreator 2.0

  0  0  0  0  0  0              0 V3000
M  V30 BEGIN CTAB
M  V30 COUNTS 35 38 0 0 0
M  V30 BEGIN ATOM
M  V30 1 F 9.7234 2.4393 0.0 0
M  V30 2 C 9.5155 1.4612 0.0 0
M  V30 3 F 10.4936 1.2533 0.0 0
M  V30 4 F 9.3076 0.483 0.0 0
M  V30 5 C 8.5373 1.6691 0.0 0
M  V30 6 N 8.1306 2.5826 0.0 0
M  V30 7 C 7.7942 0.9999 0.0 0
M  V30 8 O 7.1361 2.4781 0.0 0
M  V30 9 C 6.9282 1.4999 0.0 0
M  V30 10 C 7.7942 0.0 0.0 0
M  V30 11 C 6.0621 0.9999 0.0 0
M  V30 12 C 6.9282 -0.5 0.0 0
M  V30 13 C 6.0621 0.0 0.0 0
M  V30 14 C 5.1961 1.5 0.0 0
M  V30 15 O 5.1961 -0.5 0.0 0
M  V30 16 C 5.1961 2.5 0.0 0
M  V30 17 C 4.3301 0.0 0.0 0
M  V30 18 C 4.3301 3.0 0.0 0
M  V30 19 C 3.4641 -0.5 0.0 0
M  V30 20 C 2.598 0.0 0.0 0
M  V30 21 C 1.732 -0.5 0.0 0
M  V30 22 O 0.866 0.0 0.0 0
M  V30 23 C 0.0 -0.5 0.0 0
M  V30 24 C 0.0 -1.5 0.0 0
M  V30 25 C -0.866 0.0 0.0 0
M  V30 26 C -0.866 -1.9999 0.0 0
M  V30 27 C 0.7431 -2.1691 0.0 0
M  V30 28 C -1.732 -0.4999 0.0 0
M  V30 29 N -0.6581 -2.9781 0.0 0
M  V30 30 C -1.732 -1.4999 0.0 0
M  V30 31 C 0.3364 -3.0826 0.0 0
M  V30 32 C -1.3272 -3.7212 0.0 0
M  V30 33 C -2.3053 -3.5133 0.0 0
M  V30 34 O -2.6144 -2.5623 0.0 0
M  V30 35 O -2.9745 -4.2565 0.0 0
M  V30 END ATOM
M  V30 BEGIN BOND
M  V30 1 1 1 2
M  V30 2 1 2 3
M  V30 3 1 2 4
M  V30 4 1 2 5
M  V30 5 2 5 6
M  V30 6 1 5 7
M  V30 7 1 6 8
M  V30 8 2 7 9
M  V30 9 1 7 10
M  V30 10 1 9 11
M  V30 11 2 10 12
M  V30 12 2 11 13
M  V30 13 1 11 14
M  V30 14 1 13 15
M  V30 15 1 14 16
M  V30 16 1 15 17
M  V30 17 1 16 18
M  V30 18 1 17 19
M  V30 19 1 19 20
M  V30 20 1 20 21
M  V30 21 1 21 22
M  V30 22 1 22 23
M  V30 23 2 23 24
M  V30 24 1 23 25
M  V30 25 1 24 26
M  V30 26 1 24 27
M  V30 27 2 25 28
M  V30 28 1 26 29
M  V30 29 2 26 30
M  V30 30 2 27 31
M  V30 31 1 29 32
M  V30 32 1 32 33
M  V30 33 2 33 34
M  V30 34 1 33 35
M  V30 35 1 8 9
M  V30 36 1 12 13
M  V30 37 1 28 30
M  V30 38 1 29 31
M  V30 END BOND
M  V30 END CTAB
M  END
>  <Molecule ChEMBL ID>
CHEMBL173828

>  <Smiles>
CCCc1c(OCCCCOc2cccc3c2ccn3CC(=O)O)ccc2c(C(F)(F)F)noc12

>  <IC50_nM>
774

>  <Assay Description>
Displacement of [3H]rosiglitazone from human PPAR gamma by SPA assay

$$$$
CHEMBL496534
Actelion Java MolfileCreator 2.0

  0  0  0  0  0  0              0 V3000
M  V30 BEGIN CTAB
M  V30 COUNTS 32 35 0 0 0
M  V30 BEGIN ATOM
M  V30 1 Cl 4.181 6.7946 0.0 0
M  V30 2 C 5.6482 7.1065 0.0 0
M  V30 3 C 6.6519 5.9917 0.0 0
M  V30 4 C 6.1118 8.533 0.0 0
M  V30 5 N 6.4951 4.5 0.0 0
M  V30 6 C 8.1192 6.3036 0.0 0
M  V30 7 C 7.579 8.8449 0.0 0
M  V30 8 S 5.1961 3.75 0.0 0
M  V30 9 C 7.8655 3.8898 0.0 0
M  V30 10 C 8.5827 7.7302 0.0 0
M  V30 11 C 8.8692 5.0046 0.0 0
M  V30 12 O 4.4461 5.049 0.0 0
M  V30 13 O 3.6961 3.7499 0.0 0
M  V30 14 C 5.1961 2.25 0.0 0
M  V30 15 C 3.8971 1.5 0.0 0
M  V30 16 C 6.4951 1.5 0.0 0
M  V30 17 C 3.8971 0.0 0.0 0
M  V30 18 C 6.4951 0.0 0.0 0
M  V30 19 C 2.598 -0.75 0.0 0
M  V30 20 C 5.1961 -0.75 0.0 0
M  V30 21 O 2.598 -2.25 0.0 0
M  V30 22 N 1.299 0.0 0.0 0
M  V30 23 C 0.0 -0.75 0.0 0
M  V30 24 C -1.299 0.0 0.0 0
M  V30 25 C 0.0 -2.25 0.0 0
M  V30 26 C -1.299 1.5 0.0 0
M  V30 27 C -2.598 -0.75 0.0 0
M  V30 28 C -1.299 -3.0 0.0 0
M  V30 29 O 0.0 2.25 0.0 0
M  V30 30 O -2.598 2.25 0.0 0
M  V30 31 C -2.598 -2.25 0.0 0
M  V30 32 C -3.8971 -3.0 0.0 0
M  V30 END ATOM
M  V30 BEGIN BOND
M  V30 1 1 1 2
M  V30 2 2 2 3
M  V30 3 1 2 4
M  V30 4 1 3 5
M  V30 5 1 3 6
M  V30 6 2 4 7
M  V30 7 1 5 8
M  V30 8 1 5 9
M  V30 9 2 6 10
M  V30 10 1 6 11
M  V30 11 2 8 12
M  V30 12 2 8 13
M  V30 13 1 8 14
M  V30 14 2 14 15
M  V30 15 1 14 16
M  V30 16 1 15 17
M  V30 17 2 16 18
M  V30 18 1 17 19
M  V30 19 2 17 20
M  V30 20 2 19 21
M  V30 21 1 19 22
M  V30 22 1 22 23
M  V30 23 2 23 24
M  V30 24 1 23 25
M  V30 25 1 24 26
M  V30 26 1 24 27
M  V30 27 2 25 28
M  V30 28 2 26 29
M  V30 29 1 26 30
M  V30 30 2 27 31
M  V30 31 1 31 32
M  V30 32 1 7 10
M  V30 33 2 9 11
M  V30 34 1 18 20
M  V30 35 1 28 31
M  V30 END BOND
M  V30 END CTAB
M  END
>  <Molecule ChEMBL ID>
CHEMBL496534

>  <Smiles>
Cc1ccc(NC(=O)c2cccc(S(=O)(=O)n3ccc4cccc(Cl)c43)c2)c(C(=O)O)c1

>  <IC50_nM>
794.33

>  <Assay Description>
Displacement of radiolabeled ligand from human PPARgamma by competition-binding assay

$$$$
CHEMBL496534
Actelion Java MolfileCreator 2.0

  0  0  0  0  0  0              0 V3000
M  V30 BEGIN CTAB
M  V30 COUNTS 32 35 0 0 0
M  V30 BEGIN ATOM
M  V30 1 Cl 4.181 6.7946 0.0 0
M  V30 2 C 5.6482 7.1065 0.0 0
M  V30 3 C 6.6519 5.9917 0.0 0
M  V30 4 C 6.1118 8.533 0.0 0
M  V30 5 N 6.4951 4.5 0.0 0
M  V30 6 C 8.1192 6.3036 0.0 0
M  V30 7 C 7.579 8.8449 0.0 0
M  V30 8 S 5.1961 3.75 0.0 0
M  V30 9 C 7.8655 3.8898 0.0 0
M  V30 10 C 8.5827 7.7302 0.0 0
M  V30 11 C 8.8692 5.0046 0.0 0
M  V30 12 O 4.4461 5.049 0.0 0
M  V30 13 O 3.6961 3.7499 0.0 0
M  V30 14 C 5.1961 2.25 0.0 0
M  V30 15 C 3.8971 1.5 0.0 0
M  V30 16 C 6.4951 1.5 0.0 0
M  V30 17 C 3.8971 0.0 0.0 0
M  V30 18 C 6.4951 0.0 0.0 0
M  V30 19 C 2.598 -0.75 0.0 0
M  V30 20 C 5.1961 -0.75 0.0 0
M  V30 21 O 2.598 -2.25 0.0 0
M  V30 22 N 1.299 0.0 0.0 0
M  V30 23 C 0.0 -0.75 0.0 0
M  V30 24 C -1.299 0.0 0.0 0
M  V30 25 C 0.0 -2.25 0.0 0
M  V30 26 C -1.299 1.5 0.0 0
M  V30 27 C -2.598 -0.75 0.0 0
M  V30 28 C -1.299 -3.0 0.0 0
M  V30 29 O 0.0 2.25 0.0 0
M  V30 30 O -2.598 2.25 0.0 0
M  V30 31 C -2.598 -2.25 0.0 0
M  V30 32 C -3.8971 -3.0 0.0 0
M  V30 END ATOM
M  V30 BEGIN BOND
M  V30 1 1 1 2
M  V30 2 2 2 3
M  V30 3 1 2 4
M  V30 4 1 3 5
M  V30 5 1 3 6
M  V30 6 2 4 7
M  V30 7 1 5 8
M  V30 8 1 5 9
M  V30 9 2 6 10
M  V30 10 1 6 11
M  V30 11 2 8 12
M  V30 12 2 8 13
M  V30 13 1 8 14
M  V30 14 2 14 15
M  V30 15 1 14 16
M  V30 16 1 15 17
M  V30 17 2 16 18
M  V30 18 1 17 19
M  V30 19 2 17 20
M  V30 20 2 19 21
M  V30 21 1 19 22
M  V30 22 1 22 23
M  V30 23 2 23 24
M  V30 24 1 23 25
M  V30 25 1 24 26
M  V30 26 1 24 27
M  V30 27 2 25 28
M  V30 28 2 26 29
M  V30 29 1 26 30
M  V30 30 2 27 31
M  V30 31 1 31 32
M  V30 32 1 7 10
M  V30 33 2 9 11
M  V30 34 1 18 20
M  V30 35 1 28 31
M  V30 END BOND
M  V30 END CTAB
M  END
>  <Molecule ChEMBL ID>
CHEMBL496534

>  <Smiles>
Cc1ccc(NC(=O)c2cccc(S(=O)(=O)n3ccc4cccc(Cl)c43)c2)c(C(=O)O)c1

>  <IC50_nM>
794.33

>  <Assay Description>
Agonist activity at PPARgamma

$$$$
CHEMBL388561
Actelion Java MolfileCreator 2.0

  0  0  0  0  0  0              0 V3000
M  V30 BEGIN CTAB
M  V30 COUNTS 35 39 0 0 0
M  V30 BEGIN ATOM
M  V30 1 O 10.3923 -6.7499 0.0 0
M  V30 2 C 10.3923 -5.25 0.0 0
M  V30 3 N 11.6913 -4.5 0.0 0
M  V30 4 N 9.0932 -4.5 0.0 0
M  V30 5 C 11.6913 -3.0 0.0 0
M  V30 6 C 9.0932 -3.0 0.0 0 CFG=2
M  V30 7 C 10.3923 -2.25 0.0 0
M  V30 8 C 12.9903 -2.2499 0.0 0
M  V30 9 C 7.7942 -2.25 0.0 0
M  V30 10 C 10.3923 -0.7499 0.0 0
M  V30 11 C 7.7942 -0.75 0.0 0
M  V30 12 C 6.4951 -2.9999 0.0 0
M  V30 13 O 11.6913 0.0 0.0 0
M  V30 14 O 9.0932 0.0 0.0 0
M  V30 15 C 6.4951 0.0 0.0 0
M  V30 16 C 5.1961 -2.25 0.0 0
M  V30 17 C 5.1961 -0.75 0.0 0
M  V30 18 O 3.8971 0.0 0.0 0
M  V30 19 C 2.598 -0.75 0.0 0
M  V30 20 C 1.299 0.0 0.0 0
M  V30 21 N 0.0 -0.75 0.0 0
M  V30 22 C -1.3703 -0.1398 0.0 0
M  V30 23 C -0.1567 -2.2417 0.0 0
M  V30 24 C -2.374 -1.2546 0.0 0
M  V30 25 C -1.8338 1.2866 0.0 0
M  V30 26 C -1.624 -2.5536 0.0 0
M  V30 27 C 0.8469 -3.3565 0.0 0
M  V30 28 C -3.8412 -0.9427 0.0 0
M  V30 29 C -3.301 1.5985 0.0 0
M  V30 30 C -2.0875 -3.9802 0.0 0
M  V30 31 C 0.3833 -4.783 0.0 0
M  V30 32 O -4.8449 -2.0574 0.0 0
M  V30 33 C -4.3047 0.4838 0.0 0
M  V30 34 C -1.0838 -5.0949 0.0 0
M  V30 35 C -4.3814 -3.484 0.0 0
M  V30 END ATOM
M  V30 BEGIN BOND
M  V30 1 2 1 2
M  V30 2 1 2 3
M  V30 3 1 2 4
M  V30 4 1 3 5
M  V30 5 1 4 6
M  V30 6 2 5 7
M  V30 7 1 5 8
M  V30 8 1 6 9 CFG=1
M  V30 9 1 7 10
M  V30 10 2 9 11
M  V30 11 1 9 12
M  V30 12 2 10 13
M  V30 13 1 10 14
M  V30 14 1 11 15
M  V30 15 2 12 16
M  V30 16 2 15 17
M  V30 17 1 17 18
M  V30 18 1 18 19
M  V30 19 1 19 20
M  V30 20 1 20 21
M  V30 21 1 21 22
M  V30 22 1 21 23
M  V30 23 2 22 24
M  V30 24 1 22 25
M  V30 25 2 23 26
M  V30 26 1 23 27
M  V30 27 1 24 28
M  V30 28 2 25 29
M  V30 29 1 26 30
M  V30 30 2 27 31
M  V30 31 1 28 32
M  V30 32 2 28 33
M  V30 33 2 30 34
M  V30 34 1 32 35
M  V30 35 1 6 7
M  V30 36 1 16 17
M  V30 37 1 24 26
M  V30 38 1 29 33
M  V30 39 1 31 34
M  V30 END BOND
M  V30 BEGIN COLLECTION
M  V30 MDLV30/STERAC1 ATOMS=(1 6)
M  V30 END COLLECTION
M  V30 END CTAB
M  END
>  <Molecule ChEMBL ID>
CHEMBL388561

>  <Smiles>
COc1cccc2c1c1ccccc1n2CCOc1ccc(C2NC(=O)NC(C)=C2C(=O)O)cc1

>  <IC50_nM>
800

>  <Assay Description>
Displacement of [3H]rosiglitazone from PPAR gamma

$$$$
CHEMBL230458
Actelion Java MolfileCreator 2.0

  0  0  0  0  0  0              0 V3000
M  V30 BEGIN CTAB
M  V30 COUNTS 34 37 0 0 0
M  V30 BEGIN ATOM
M  V30 1 O 9.5262 1.0 0.0 0
M  V30 2 C 8.6602 1.5 0.0 0
M  V30 3 N 8.6602 2.5 0.0 0
M  V30 4 N 7.7942 1.0 0.0 0
M  V30 5 C 7.7942 2.9999 0.0 0
M  V30 6 C 6.9282 1.4999 0.0 0 CFG=2
M  V30 7 C 6.9282 2.4999 0.0 0
M  V30 8 C 7.7942 4.0 0.0 0
M  V30 9 C 6.0621 0.9999 0.0 0
M  V30 10 C 6.0621 2.9999 0.0 0
M  V30 11 C 5.1961 1.4999 0.0 0
M  V30 12 C 6.0621 0.0 0.0 0
M  V30 13 O 6.0621 3.9999 0.0 0
M  V30 14 O 5.1961 2.4999 0.0 0
M  V30 15 C 4.3301 1.0 0.0 0
M  V30 16 C 5.1961 -0.5 0.0 0
M  V30 17 O 3.4641 1.4999 0.0 0
M  V30 18 C 4.3301 0.0 0.0 0
M  V30 19 C 2.598 1.0 0.0 0
M  V30 20 O 3.4641 -0.5 0.0 0
M  V30 21 C 2.598 0.0 0.0 0
M  V30 22 C 1.732 -0.5 0.0 0
M  V30 23 O 0.866 0.0 0.0 0
M  V30 24 C 0.0 -0.5 0.0 0
M  V30 25 C -0.866 0.0 0.0 0
M  V30 26 C 0.0 -1.4999 0.0 0
M  V30 27 N -0.866 1.0 0.0 0
M  V30 28 C -1.732 -0.4999 0.0 0
M  V30 29 C -0.866 -1.9999 0.0 0
M  V30 30 C -1.732 1.5 0.0 0
M  V30 31 C -2.598 0.0 0.0 0
M  V30 32 C -1.732 -1.4999 0.0 0
M  V30 33 C -2.598 1.0 0.0 0
M  V30 34 C -1.732 2.5 0.0 0
M  V30 END ATOM
M  V30 BEGIN BOND
M  V30 1 2 1 2
M  V30 2 1 2 3
M  V30 3 1 2 4
M  V30 4 1 3 5
M  V30 5 1 4 6
M  V30 6 2 5 7
M  V30 7 1 5 8
M  V30 8 1 6 9 CFG=1
M  V30 9 1 7 10
M  V30 10 2 9 11
M  V30 11 1 9 12
M  V30 12 2 10 13
M  V30 13 1 10 14
M  V30 14 1 11 15
M  V30 15 2 12 16
M  V30 16 1 15 17
M  V30 17 2 15 18
M  V30 18 1 17 19
M  V30 19 1 18 20
M  V30 20 1 20 21
M  V30 21 1 21 22
M  V30 22 1 22 23
M  V30 23 1 23 24
M  V30 24 1 24 25
M  V30 25 2 24 26
M  V30 26 2 25 27
M  V30 27 1 25 28
M  V30 28 1 26 29
M  V30 29 1 27 30
M  V30 30 2 28 31
M  V30 31 1 28 32
M  V30 32 2 30 33
M  V30 33 1 30 34
M  V30 34 1 6 7
M  V30 35 1 16 18
M  V30 36 2 29 32
M  V30 37 1 31 33
M  V30 END BOND
M  V30 BEGIN COLLECTION
M  V30 MDLV30/STERAC1 ATOMS=(1 6)
M  V30 END COLLECTION
M  V30 END CTAB
M  END
>  <Molecule ChEMBL ID>
CHEMBL230458

>  <Smiles>
COc1cc(C2NC(=O)NC(C)=C2C(=O)O)ccc1OCCOc1cccc2ccc(C)nc12

>  <IC50_nM>
800

>  <Assay Description>
Displacement of [3H]rosiglitazone from PPAR gamma

$$$$
CHEMBL272963
Actelion Java MolfileCreator 2.0

  0  0  0  0  0  0              0 V3000
M  V30 BEGIN CTAB
M  V30 COUNTS 40 44 0 0 0
M  V30 BEGIN ATOM
M  V30 1 O 6.687 -2.3319 0.0 0
M  V30 2 C 7.187 -1.4659 0.0 0
M  V30 3 N 8.1529 -1.2071 0.0 0
M  V30 4 C 6.9282 -0.5 0.0 0 CFG=1
M  V30 5 C 9.0189 -1.7071 0.0 0
M  V30 6 C 7.8941 -0.2411 0.0 0 CFG=2
M  V30 7 C 6.0621 0.0 0.0 0
M  V30 8 C 9.0189 -2.7071 0.0 0
M  V30 9 C 9.8849 -1.2071 0.0 0
M  V30 10 C 8.3941 0.6248 0.0 0
M  V30 11 C 5.1961 -0.5 0.0 0
M  V30 12 C 9.8849 -3.2071 0.0 0
M  V30 13 C 10.751 -1.7071 0.0 0
M  V30 14 O 9.3941 0.6248 0.0 0
M  V30 15 O 7.8941 1.4908 0.0 0
M  V30 16 C 4.3301 0.0 0.0 0
M  V30 17 C 5.1961 -1.4999 0.0 0
M  V30 18 C 10.751 -2.7071 0.0 0
M  V30 19 C 3.4641 -0.5 0.0 0
M  V30 20 C 4.3301 -1.9999 0.0 0
M  V30 21 C 11.617 -3.2071 0.0 0
M  V30 22 O 2.598 0.0 0.0 0
M  V30 23 C 3.4641 -1.4999 0.0 0
M  V30 24 C 12.117 -2.341 0.0 0
M  V30 25 C 12.483 -3.7071 0.0 0
M  V30 26 C 11.117 -4.0731 0.0 0
M  V30 27 C 1.732 -0.5 0.0 0
M  V30 28 C 0.866 0.0 0.0 0
M  V30 29 C 0.0 -0.5 0.0 0
M  V30 30 N -0.9135 -0.0932 0.0 0
M  V30 31 C -0.1045 -1.4945 0.0 0
M  V30 32 C -1.5826 -0.8364 0.0 0
M  V30 33 O -1.0826 -1.7024 0.0 0
M  V30 34 C 0.6386 -2.1636 0.0 0
M  V30 35 C -2.5771 -0.7318 0.0 0
M  V30 36 C -2.9839 0.1816 0.0 0
M  V30 37 C -3.1649 -1.5408 0.0 0
M  V30 38 C -3.9784 0.2861 0.0 0
M  V30 39 C -4.1595 -1.4363 0.0 0
M  V30 40 C -4.5662 -0.5228 0.0 0
M  V30 END ATOM
M  V30 BEGIN BOND
M  V30 1 2 1 2
M  V30 2 1 2 3
M  V30 3 1 2 4
M  V30 4 1 3 5
M  V30 5 1 3 6
M  V30 6 1 4 7 CFG=3
M  V30 7 2 5 8
M  V30 8 1 5 9
M  V30 9 1 6 10 CFG=3
M  V30 10 1 7 11
M  V30 11 1 8 12
M  V30 12 2 9 13
M  V30 13 2 10 14
M  V30 14 1 10 15
M  V30 15 2 11 16
M  V30 16 1 11 17
M  V30 17 2 12 18
M  V30 18 1 16 19
M  V30 19 2 17 20
M  V30 20 1 18 21
M  V30 21 1 19 22
M  V30 22 2 19 23
M  V30 23 1 21 24
M  V30 24 1 21 25
M  V30 25 1 21 26
M  V30 26 1 22 27
M  V30 27 1 27 28
M  V30 28 1 28 29
M  V30 29 1 29 30
M  V30 30 2 29 31
M  V30 31 2 30 32
M  V30 32 1 31 33
M  V30 33 1 31 34
M  V30 34 1 32 35
M  V30 35 2 35 36
M  V30 36 1 35 37
M  V30 37 1 36 38
M  V30 38 2 37 39
M  V30 39 2 38 40
M  V30 40 1 4 6
M  V30 41 1 13 18
M  V30 42 1 20 23
M  V30 43 1 32 33
M  V30 44 1 39 40
M  V30 END BOND
M  V30 BEGIN COLLECTION
M  V30 MDLV30/STEABS ATOMS=(2 4 6)
M  V30 END COLLECTION
M  V30 END CTAB
M  END
>  <Molecule ChEMBL ID>
CHEMBL272963

>  <Smiles>
Cc1oc(-c2ccccc2)nc1CCOc1cccc(C[C@H]2C(=O)N(c3ccc(C(C)(C)C)cc3)[C@H]2C(=O)O)c1

>  <IC50_nM>
800

>  <Assay Description>
Inhibition of PPARgamma

$$$$
CHEMBL595
Actelion Java MolfileCreator 2.0

  0  0  0  0  0  0              0 V3000
M  V30 BEGIN CTAB
M  V30 COUNTS 25 27 0 0 0
M  V30 BEGIN ATOM
M  V30 1 S 5.2531 -3.5877 0.0 0
M  V30 2 C 5.5621 -4.5388 0.0 0
M  V30 3 C 6.0621 -3.0 0.0 0 CFG=2
M  V30 4 O 4.9743 -5.3478 0.0 0
M  V30 5 N 6.5621 -4.5388 0.0 0
M  V30 6 C 6.8711 -3.5877 0.0 0
M  V30 7 C 6.0621 -1.9999 0.0 0
M  V30 8 O 7.8222 -3.2787 0.0 0
M  V30 9 C 5.1961 -1.4999 0.0 0
M  V30 10 C 5.1961 -0.5 0.0 0
M  V30 11 C 4.3301 -1.9999 0.0 0
M  V30 12 C 4.3301 0.0 0.0 0
M  V30 13 C 3.4641 -1.5 0.0 0
M  V30 14 C 3.4641 -0.5 0.0 0
M  V30 15 O 2.598 0.0 0.0 0
M  V30 16 C 1.732 -0.5 0.0 0
M  V30 17 C 0.866 0.0 0.0 0
M  V30 18 C 0.0 -0.5 0.0 0
M  V30 19 N -0.866 0.0 0.0 0
M  V30 20 C 0.0 -1.4999 0.0 0
M  V30 21 C -1.732 -0.4999 0.0 0
M  V30 22 C -0.866 -1.9999 0.0 0
M  V30 23 C -1.732 -1.4999 0.0 0
M  V30 24 C -2.598 -1.9999 0.0 0
M  V30 25 C -2.598 -2.9999 0.0 0
M  V30 END ATOM
M  V30 BEGIN BOND
M  V30 1 1 1 2
M  V30 2 1 1 3
M  V30 3 2 2 4
M  V30 4 1 2 5
M  V30 5 1 3 6
M  V30 6 1 3 7 CFG=1
M  V30 7 2 6 8
M  V30 8 1 7 9
M  V30 9 2 9 10
M  V30 10 1 9 11
M  V30 11 1 10 12
M  V30 12 2 11 13
M  V30 13 2 12 14
M  V30 14 1 14 15
M  V30 15 1 15 16
M  V30 16 1 16 17
M  V30 17 1 17 18
M  V30 18 2 18 19
M  V30 19 1 18 20
M  V30 20 1 19 21
M  V30 21 2 20 22
M  V30 22 2 21 23
M  V30 23 1 23 24
M  V30 24 1 24 25
M  V30 25 1 5 6
M  V30 26 1 13 14
M  V30 27 1 22 23
M  V30 END BOND
M  V30 BEGIN COLLECTION
M  V30 MDLV30/STERAC1 ATOMS=(1 3)
M  V30 END COLLECTION
M  V30 END CTAB
M  END
>  <Molecule ChEMBL ID>
CHEMBL595

>  <Smiles>
CCc1ccc(CCOc2ccc(CC3SC(=O)NC3=O)cc2)nc1

>  <IC50_nM>
800

>  <Assay Description>
Displacement of [3H]rosiglitazone from PPAR gamma

$$$$
CHEMBL483351
Actelion Java MolfileCreator 2.0

  0  0  0  0  0  0              0 V3000
M  V30 BEGIN CTAB
M  V30 COUNTS 33 36 0 0 0
M  V30 BEGIN ATOM
M  V30 1 O 6.9282 -4.5 0.0 0
M  V30 2 C 6.9282 -3.5 0.0 0
M  V30 3 O 7.7942 -3.0 0.0 0
M  V30 4 C 6.0621 -3.0 0.0 0 CFG=1
M  V30 5 O 5.1961 -3.5 0.0 0
M  V30 6 C 6.0621 -1.9999 0.0 0
M  V30 7 C 5.1961 -4.4999 0.0 0
M  V30 8 C 5.1961 -1.4999 0.0 0
M  V30 9 C 5.1961 -0.5 0.0 0
M  V30 10 C 4.3301 -1.9999 0.0 0
M  V30 11 C 4.3301 0.0 0.0 0
M  V30 12 C 6.0621 0.0 0.0 0
M  V30 13 C 3.4641 -1.5 0.0 0
M  V30 14 C 3.4641 -0.5 0.0 0
M  V30 15 C 4.3301 1.0 0.0 0
M  V30 16 C 6.0621 1.0 0.0 0
M  V30 17 O 2.598 0.0 0.0 0
M  V30 18 C 5.1961 1.5 0.0 0
M  V30 19 C 1.732 -0.5 0.0 0
M  V30 20 C 0.866 0.0 0.0 0
M  V30 21 C 0.0 -0.5 0.0 0
M  V30 22 N -0.9135 -0.0932 0.0 0
M  V30 23 C -0.1045 -1.4945 0.0 0
M  V30 24 C -1.5826 -0.8364 0.0 0
M  V30 25 O -1.0826 -1.7024 0.0 0
M  V30 26 C 0.6386 -2.1636 0.0 0
M  V30 27 C -2.5771 -0.7318 0.0 0
M  V30 28 C -2.9839 0.1816 0.0 0
M  V30 29 C -3.1649 -1.5408 0.0 0
M  V30 30 C -3.9784 0.2861 0.0 0
M  V30 31 C -2.3961 0.9906 0.0 0
M  V30 32 C -4.1595 -1.4363 0.0 0
M  V30 33 C -4.5662 -0.5228 0.0 0
M  V30 END ATOM
M  V30 BEGIN BOND
M  V30 1 2 1 2
M  V30 2 1 2 3
M  V30 3 1 2 4
M  V30 4 1 4 5 CFG=1
M  V30 5 1 4 6
M  V30 6 1 5 7
M  V30 7 1 6 8
M  V30 8 1 8 9
M  V30 9 2 8 10
M  V30 10 1 9 11
M  V30 11 2 9 12
M  V30 12 1 10 13
M  V30 13 1 11 14
M  V30 14 2 11 15
M  V30 15 1 12 16
M  V30 16 1 14 17
M  V30 17 1 15 18
M  V30 18 1 17 19
M  V30 19 1 19 20
M  V30 20 1 20 21
M  V30 21 1 21 22
M  V30 22 2 21 23
M  V30 23 2 22 24
M  V30 24 1 23 25
M  V30 25 1 23 26
M  V30 26 1 24 27
M  V30 27 2 27 28
M  V30 28 1 27 29
M  V30 29 1 28 30
M  V30 30 1 28 31
M  V30 31 2 29 32
M  V30 32 2 30 33
M  V30 33 2 13 14
M  V30 34 2 16 18
M  V30 35 1 24 25
M  V30 36 1 32 33
M  V30 END BOND
M  V30 BEGIN COLLECTION
M  V30 MDLV30/STERAC1 ATOMS=(1 4)
M  V30 END COLLECTION
M  V30 END CTAB
M  END
>  <Molecule ChEMBL ID>
CHEMBL483351

>  <Smiles>
COC(Cc1ccc(OCCc2nc(-c3ccccc3C)oc2C)c2ccccc12)C(=O)O

>  <IC50_nM>
802

>  <Assay Description>
Displacement of radio labeled 2(S)-(2-benzoyl-phenylamino)-3-{4-[1,1-ditritio-2-(5-methyl-2-phenyl-oxazol-4-yl)-ethoxy]-phenyl}-propionic acid from GST-fused human PPARgamma expressed in Escherichia coli BL21 cells by scintillation proximity assay

$$$$
CHEMBL3699349
Actelion Java MolfileCreator 2.0

  0  0  0  0  0  0              0 V3000
M  V30 BEGIN CTAB
M  V30 COUNTS 48 53 0 0 0
M  V30 BEGIN ATOM
M  V30 1 O 6.9282 -1.4999 0.0 0
M  V30 2 C 6.0621 -2.0 0.0 0
M  V30 3 N 5.1961 -1.4999 0.0 0
M  V30 4 N 6.0621 -3.0 0.0 0
M  V30 5 C 5.1961 -0.5 0.0 0
M  V30 6 C 4.3301 -1.9999 0.0 0
M  V30 7 C 5.1961 -3.4999 0.0 0
M  V30 8 C 4.3301 0.0 0.0 0
M  V30 9 C 3.4641 -1.5 0.0 0
M  V30 10 C 5.1961 -4.5 0.0 0
M  V30 11 C 3.4641 -0.5 0.0 0
M  V30 12 C 4.3301 -4.9999 0.0 0
M  V30 13 C 6.0621 -5.0 0.0 0
M  V30 14 C 2.598 0.0 0.0 0 CFG=1
M  V30 15 C 4.3301 -5.9999 0.0 0
M  V30 16 C 6.0621 -6.0 0.0 0
M  V30 17 N 1.732 -0.5 0.0 0
M  V30 18 C 2.598 1.0 0.0 0
M  V30 19 C 5.1961 -6.5 0.0 0
M  V30 20 C 0.866 0.0 0.0 0
M  V30 21 O 0.866 1.0 0.0 0
M  V30 22 C 0.0 -0.5 0.0 0
M  V30 23 C 0.0 -1.4999 0.0 0
M  V30 24 C -0.866 0.0 0.0 0
M  V30 25 C -0.866 -1.9999 0.0 0
M  V30 26 C -1.732 -0.4999 0.0 0
M  V30 27 C -1.732 -1.4999 0.0 0
M  V30 28 C -1.0739 -2.9781 0.0 0
M  V30 29 N -2.4751 -2.1691 0.0 0
M  V30 30 C -2.0684 -3.0826 0.0 0
M  V30 31 C -0.4048 -3.7212 0.0 0
M  V30 32 C -3.4533 -1.9612 0.0 0
M  V30 33 C -2.5684 -3.9487 0.0 0
M  V30 34 C -4.1224 -2.7043 0.0 0
M  V30 35 C -5.1006 -2.4964 0.0 0
M  V30 36 C -3.8134 -3.6554 0.0 0
M  V30 37 C -5.7697 -3.2395 0.0 0
M  V30 38 C -4.4825 -4.3985 0.0 0
M  V30 39 C -5.4607 -4.1906 0.0 0
M  V30 40 C -6.1298 -4.9337 0.0 0
M  V30 41 C -7.108 -4.7258 0.0 0
M  V30 42 C -5.8208 -5.8848 0.0 0
M  V30 43 C -7.417 -3.7748 0.0 0
M  V30 44 C -7.7771 -5.469 0.0 0
M  V30 45 C -6.4899 -6.6279 0.0 0
M  V30 46 O -6.7478 -3.0316 0.0 0
M  V30 47 O -8.3951 -3.5669 0.0 0
M  V30 48 C -7.4681 -6.42 0.0 0
M  V30 END ATOM
M  V30 BEGIN BOND
M  V30 1 2 1 2
M  V30 2 1 2 3
M  V30 3 1 2 4
M  V30 4 1 3 5
M  V30 5 1 3 6
M  V30 6 1 4 7
M  V30 7 1 5 8
M  V30 8 1 6 9
M  V30 9 1 7 10
M  V30 10 1 8 11
M  V30 11 2 10 12
M  V30 12 1 10 13
M  V30 13 1 11 14
M  V30 14 1 12 15
M  V30 15 2 13 16
M  V30 16 1 14 17
M  V30 17 1 14 18 CFG=1
M  V30 18 2 15 19
M  V30 19 1 17 20
M  V30 20 2 20 21
M  V30 21 1 20 22
M  V30 22 2 22 23
M  V30 23 1 22 24
M  V30 24 1 23 25
M  V30 25 2 24 26
M  V30 26 2 25 27
M  V30 27 1 25 28
M  V30 28 1 27 29
M  V30 29 2 28 30
M  V30 30 1 28 31
M  V30 31 1 29 32
M  V30 32 1 30 33
M  V30 33 1 32 34
M  V30 34 2 34 35
M  V30 35 1 34 36
M  V30 36 1 35 37
M  V30 37 2 36 38
M  V30 38 2 37 39
M  V30 39 1 39 40
M  V30 40 2 40 41
M  V30 41 1 40 42
M  V30 42 1 41 43
M  V30 43 1 41 44
M  V30 44 2 42 45
M  V30 45 2 43 46
M  V30 46 1 43 47
M  V30 47 2 44 48
M  V30 48 1 9 11
M  V30 49 1 16 19
M  V30 50 1 26 27
M  V30 51 1 29 30
M  V30 52 1 38 39
M  V30 53 1 45 48
M  V30 END BOND
M  V30 BEGIN COLLECTION
M  V30 MDLV30/STEABS ATOMS=(1 14)
M  V30 END COLLECTION
M  V30 END CTAB
M  END
>  <Molecule ChEMBL ID>
CHEMBL3699349

>  <Smiles>
Cc1c(C)n(Cc2ccc(-c3ccccc3C(=O)O)cc2)c2ccc(C(=O)N[C@@H](C)C3CCN(C(=O)NCc4ccccc4)CC3)cc12

>  <IC50_nM>
805

>  <Assay Description>
Lanthascreen Competitive Binding Assay: The assay was performed according to manufacturer protocol. A mixture of nM GST-PPARG-LBD, 5 nM Tb-GST-antibody, 5 nM Fluormone Pan-PPAR Green, and serial dilutions of the experimental compound, beginning at 10 ׬M downwards, was added to wells of black 384-well low-volume plates (Greiner) to a total volume of 18 ׬L. All dilutions were made in TR-FRET assay buffer C. DMSO at 2% final concentration was used as a no-ligand control. Experiment was performed in triplicate, and incubated for 2 hours in the dark prior to assay read in Perkin Elmer ViewLux ultra HTS microplate reader. FRET signal was measured by excitation at 340 nm and emission at 520 nm for fluorescein and 490 nm for terbium. Fold change over DMSO was calculated using GraphPad Prism Software (La Jolla, Calif.) by calculating 520 nm/490 nm ratio. Graphs were plotted as fold change of FRET signal for compound treatment over DMSO-only control.

$$$$
CHEMBL3699420
Actelion Java MolfileCreator 2.0

  0  0  0  0  0  0              0 V3000
M  V30 BEGIN CTAB
M  V30 COUNTS 41 45 0 0 0
M  V30 BEGIN ATOM
M  V30 1 O 5.1961 -0.7499 0.0 0
M  V30 2 C 3.8971 0.0 0.0 0
M  V30 3 N 2.598 -0.7499 0.0 0
M  V30 4 C 3.8971 1.5 0.0 0
M  V30 5 C 1.299 0.0 0.0 0 CFG=2
M  V30 6 C 2.598 2.2499 0.0 0
M  V30 7 C 5.1961 2.25 0.0 0
M  V30 8 C 0.0 -0.7499 0.0 0
M  V30 9 C 1.299 1.5 0.0 0
M  V30 10 C 2.598 3.75 0.0 0
M  V30 11 C 5.1961 3.75 0.0 0
M  V30 12 C 0.0 -2.2499 0.0 0
M  V30 13 C -1.299 0.0 0.0 0
M  V30 14 C 3.8971 4.5 0.0 0
M  V30 15 C 1.4833 4.7536 0.0 0
M  V30 16 C -1.299 -2.9999 0.0 0
M  V30 17 C -2.598 -0.7499 0.0 0
M  V30 18 N 3.5852 5.9672 0.0 0
M  V30 19 C 2.0934 6.124 0.0 0
M  V30 20 C 0.0161 4.4418 0.0 0
M  V30 21 C -2.598 -2.2499 0.0 0
M  V30 22 C 4.5889 7.0819 0.0 0
M  V30 23 C 1.3434 7.423 0.0 0
M  V30 24 O -3.8971 -2.9999 0.0 0
M  V30 25 C 6.0561 6.77 0.0 0
M  V30 26 C -3.8971 -4.4999 0.0 0
M  V30 27 C 7.0598 7.8847 0.0 0
M  V30 28 C 6.5196 5.3434 0.0 0
M  V30 29 C -2.598 -5.2499 0.0 0
M  V30 30 C -5.1961 -5.2499 0.0 0
M  V30 31 C 8.527 7.5729 0.0 0
M  V30 32 C 7.9869 5.0316 0.0 0
M  V30 33 C 8.9906 6.1463 0.0 0
M  V30 34 C 10.4578 5.8344 0.0 0
M  V30 35 C 11.4615 6.9491 0.0 0
M  V30 36 C 10.9213 4.4078 0.0 0
M  V30 37 C 10.9979 8.3757 0.0 0
M  V30 38 C 12.9287 6.6373 0.0 0
M  V30 39 C 12.3885 4.096 0.0 0
M  V30 40 N 10.5344 9.8023 0.0 0
M  V30 41 C 13.3922 5.2107 0.0 0
M  V30 END ATOM
M  V30 BEGIN BOND
M  V30 1 2 1 2
M  V30 2 1 2 3
M  V30 3 1 2 4
M  V30 4 1 3 5
M  V30 5 2 4 6
M  V30 6 1 4 7
M  V30 7 1 5 8
M  V30 8 1 5 9 CFG=3
M  V30 9 1 6 10
M  V30 10 2 7 11
M  V30 11 2 8 12
M  V30 12 1 8 13
M  V30 13 2 10 14
M  V30 14 1 10 15
M  V30 15 1 12 16
M  V30 16 2 13 17
M  V30 17 1 14 18
M  V30 18 2 15 19
M  V30 19 1 15 20
M  V30 20 2 16 21
M  V30 21 1 18 22
M  V30 22 1 19 23
M  V30 23 1 21 24
M  V30 24 1 22 25
M  V30 25 1 24 26
M  V30 26 2 25 27
M  V30 27 1 25 28
M  V30 28 1 26 29
M  V30 29 1 26 30
M  V30 30 1 27 31
M  V30 31 2 28 32
M  V30 32 2 31 33
M  V30 33 1 33 34
M  V30 34 2 34 35
M  V30 35 1 34 36
M  V30 36 1 35 37
M  V30 37 1 35 38
M  V30 38 2 36 39
M  V30 39 3 37 40
M  V30 40 2 38 41
M  V30 41 1 11 14
M  V30 42 1 17 21
M  V30 43 1 18 19
M  V30 44 1 32 33
M  V30 45 1 39 41
M  V30 END BOND
M  V30 BEGIN COLLECTION
M  V30 MDLV30/STEABS ATOMS=(1 5)
M  V30 END COLLECTION
M  V30 END CTAB
M  END
>  <Molecule ChEMBL ID>
CHEMBL3699420

>  <Smiles>
Cc1c(C)n(Cc2ccc(-c3ccccc3C#N)cc2)c2ccc(C(=O)N[C@@H](C)c3ccc(OC(C)C)cc3)cc12

>  <IC50_nM>
808

>  <Assay Description>
Lanthascreen Competitive Binding Assay: The assay was performed according to manufacturer protocol. A mixture of nM GST-PPARG-LBD, 5 nM Tb-GST-antibody, 5 nM Fluormone Pan-PPAR Green, and serial dilutions of the experimental compound, beginning at 10 ׬M downwards, was added to wells of black 384-well low-volume plates (Greiner) to a total volume of 18 ׬L. All dilutions were made in TR-FRET assay buffer C. DMSO at 2% final concentration was used as a no-ligand control. Experiment was performed in triplicate, and incubated for 2 hours in the dark prior to assay read in Perkin Elmer ViewLux ultra HTS microplate reader. FRET signal was measured by excitation at 340 nm and emission at 520 nm for fluorescein and 490 nm for terbium. Fold change over DMSO was calculated using GraphPad Prism Software (La Jolla, Calif.) by calculating 520 nm/490 nm ratio. Graphs were plotted as fold change of FRET signal for compound treatment over DMSO-only control.

$$$$
CHEMBL228442
Actelion Java MolfileCreator 2.0

  0  0  0  0  0  0              0 V3000
M  V30 BEGIN CTAB
M  V30 COUNTS 35 39 0 0 0
M  V30 BEGIN ATOM
M  V30 1 O 10.3923 -6.7499 0.0 0
M  V30 2 C 10.3923 -5.25 0.0 0
M  V30 3 N 11.6913 -4.5 0.0 0
M  V30 4 N 9.0932 -4.5 0.0 0
M  V30 5 C 11.6913 -3.0 0.0 0
M  V30 6 C 9.0932 -3.0 0.0 0 CFG=2
M  V30 7 C 10.3923 -2.25 0.0 0
M  V30 8 C 12.9903 -2.2499 0.0 0
M  V30 9 C 7.7942 -2.25 0.0 0
M  V30 10 C 10.3923 -0.7499 0.0 0
M  V30 11 C 7.7942 -0.75 0.0 0
M  V30 12 C 6.4951 -2.9999 0.0 0
M  V30 13 O 11.6913 0.0 0.0 0
M  V30 14 O 9.0932 0.0 0.0 0
M  V30 15 C 6.4951 0.0 0.0 0
M  V30 16 C 5.1961 -2.25 0.0 0
M  V30 17 O 6.4951 1.5 0.0 0
M  V30 18 C 5.1961 -0.75 0.0 0
M  V30 19 C 5.1961 2.25 0.0 0
M  V30 20 O 3.8971 0.0 0.0 0
M  V30 21 C 2.598 -0.75 0.0 0
M  V30 22 C 1.299 0.0 0.0 0
M  V30 23 N 0.0 -0.75 0.0 0
M  V30 24 C -1.3703 -0.1398 0.0 0
M  V30 25 C -0.1567 -2.2417 0.0 0
M  V30 26 C -2.374 -1.2546 0.0 0
M  V30 27 C -1.8338 1.2866 0.0 0
M  V30 28 C -1.624 -2.5536 0.0 0
M  V30 29 C 0.8469 -3.3565 0.0 0
M  V30 30 C -3.8412 -0.9427 0.0 0
M  V30 31 C -3.301 1.5985 0.0 0
M  V30 32 C -2.0875 -3.9802 0.0 0
M  V30 33 C 0.3833 -4.783 0.0 0
M  V30 34 C -4.3047 0.4838 0.0 0
M  V30 35 C -1.0838 -5.0949 0.0 0
M  V30 END ATOM
M  V30 BEGIN BOND
M  V30 1 2 1 2
M  V30 2 1 2 3
M  V30 3 1 2 4
M  V30 4 1 3 5
M  V30 5 1 4 6
M  V30 6 2 5 7
M  V30 7 1 5 8
M  V30 8 1 6 9 CFG=1
M  V30 9 1 7 10
M  V30 10 2 9 11
M  V30 11 1 9 12
M  V30 12 2 10 13
M  V30 13 1 10 14
M  V30 14 1 11 15
M  V30 15 2 12 16
M  V30 16 1 15 17
M  V30 17 2 15 18
M  V30 18 1 17 19
M  V30 19 1 18 20
M  V30 20 1 20 21
M  V30 21 1 21 22
M  V30 22 1 22 23
M  V30 23 1 23 24
M  V30 24 1 23 25
M  V30 25 2 24 26
M  V30 26 1 24 27
M  V30 27 2 25 28
M  V30 28 1 25 29
M  V30 29 1 26 30
M  V30 30 2 27 31
M  V30 31 1 28 32
M  V30 32 2 29 33
M  V30 33 2 30 34
M  V30 34 2 32 35
M  V30 35 1 6 7
M  V30 36 1 16 18
M  V30 37 1 26 28
M  V30 38 1 31 34
M  V30 39 1 33 35
M  V30 END BOND
M  V30 BEGIN COLLECTION
M  V30 MDLV30/STERAC1 ATOMS=(1 6)
M  V30 END COLLECTION
M  V30 END CTAB
M  END
>  <Molecule ChEMBL ID>
CHEMBL228442

>  <Smiles>
COc1cc(C2NC(=O)NC(C)=C2C(=O)O)ccc1OCCn1c2ccccc2c2ccccc21

>  <IC50_nM>
820

>  <Assay Description>
Displacement of [3H]rosiglitazone from PPAR gamma

$$$$
CHEMBL455856
Actelion Java MolfileCreator 2.0

  0  0  0  0  0  0              0 V3000
M  V30 BEGIN CTAB
M  V30 COUNTS 18 18 0 0 0
M  V30 BEGIN ATOM
M  V30 1 S 2.7026 0.9945 0.0 0
M  V30 2 C 2.598 0.0 0.0 0
M  V30 3 C 3.6807 1.2024 0.0 0
M  V30 4 N 1.732 -0.5 0.0 0
M  V30 5 N 3.5116 -0.4067 0.0 0
M  V30 6 N 4.0874 2.1159 0.0 0 CHG=1
M  V30 7 C 4.1807 0.3364 0.0 0
M  V30 8 C 0.866 0.0 0.0 0
M  V30 9 C 3.7195 -1.3848 0.0 0
M  V30 10 O 5.082 2.2205 0.0 0
M  V30 11 O 3.4997 2.9249 0.0 0 CHG=-1
M  V30 12 O 0.866 1.0 0.0 0
M  V30 13 C 0.0 -0.5 0.0 0
M  V30 14 C 2.9763 -2.054 0.0 0
M  V30 15 C 0.4999 -1.366 0.0 0
M  V30 16 C -0.866 -0.9999 0.0 0
M  V30 17 C -0.4999 0.366 0.0 0
M  V30 18 C 3.1843 -3.0321 0.0 0
M  V30 END ATOM
M  V30 BEGIN BOND
M  V30 1 1 1 2
M  V30 2 1 1 3
M  V30 3 2 2 4
M  V30 4 1 2 5
M  V30 5 1 3 6
M  V30 6 2 3 7
M  V30 7 1 4 8
M  V30 8 1 5 9
M  V30 9 2 6 10
M  V30 10 1 6 11
M  V30 11 2 8 12
M  V30 12 1 8 13
M  V30 13 1 9 14
M  V30 14 1 13 15
M  V30 15 1 13 16
M  V30 16 1 13 17
M  V30 17 2 14 18
M  V30 18 1 5 7
M  V30 END BOND
M  V30 END CTAB
M  END
>  <Molecule ChEMBL ID>
CHEMBL455856

>  <Smiles>
C=CCn1cc([N+](=O)[O-])s/c1=N\C(=O)C(C)(C)C

>  <IC50_nM>
820

>  <Assay Description>
Antagonist activity at human PPARgamma receptor expressed in Saccharomyces cerevisiae AH109 co-transfected with mouse CBP assessed as inhibition of rosiglitazone-induced LBD-CBP interaction by alpha-galactosidase based yeast two hybrid assay

$$$$
CHEMBL300026
Actelion Java MolfileCreator 2.0

  0  0  0  0  0  0              0 V3000
M  V30 BEGIN CTAB
M  V30 COUNTS 35 38 0 0 0
M  V30 BEGIN ATOM
M  V30 1 S 7.8987 -2.9945 0.0 0
M  V30 2 C 8.8769 -3.2024 0.0 0
M  V30 3 C 7.7942 -2.0 0.0 0 CFG=2
M  V30 4 O 9.2836 -4.1159 0.0 0
M  V30 5 N 9.3769 -2.3364 0.0 0
M  V30 6 C 6.9282 -1.5 0.0 0
M  V30 7 C 8.7077 -1.5932 0.0 0
M  V30 8 C 6.9282 -0.5 0.0 0
M  V30 9 C 6.0621 -2.0 0.0 0
M  V30 10 O 8.9156 -0.6151 0.0 0
M  V30 11 C 6.0621 0.0 0.0 0
M  V30 12 C 5.1961 -1.5 0.0 0
M  V30 13 C 5.1961 -0.5 0.0 0
M  V30 14 O 4.3301 0.0 0.0 0
M  V30 15 C 3.4641 -0.5 0.0 0
M  V30 16 C 2.598 0.0 0.0 0
M  V30 17 C 1.732 -0.5 0.0 0
M  V30 18 O 0.866 0.0 0.0 0
M  V30 19 C 0.0 -0.5 0.0 0
M  V30 20 C -0.866 0.0 0.0 0
M  V30 21 C 0.0 -1.4999 0.0 0
M  V30 22 C -1.732 -0.4999 0.0 0
M  V30 23 C -0.866 1.0 0.0 0
M  V30 24 C -0.866 -1.9999 0.0 0
M  V30 25 C -1.732 -1.4999 0.0 0
M  V30 26 C 0.0 1.5 0.0 0
M  V30 27 O -2.598 -1.9999 0.0 0
M  V30 28 C 0.0 2.5 0.0 0
M  V30 29 C -2.598 -2.9999 0.0 0
M  V30 30 C -3.4641 -3.4999 0.0 0
M  V30 31 C -1.732 -3.4999 0.0 0
M  V30 32 C -3.4641 -4.4999 0.0 0
M  V30 33 C -1.732 -4.4999 0.0 0
M  V30 34 C -2.598 -4.9999 0.0 0
M  V30 35 F -2.598 -5.9999 0.0 0
M  V30 END ATOM
M  V30 BEGIN BOND
M  V30 1 1 1 2
M  V30 2 1 1 3
M  V30 3 2 2 4
M  V30 4 1 2 5
M  V30 5 1 3 6 CFG=3
M  V30 6 1 3 7
M  V30 7 2 6 8
M  V30 8 1 6 9
M  V30 9 2 7 10
M  V30 10 1 8 11
M  V30 11 2 9 12
M  V30 12 2 11 13
M  V30 13 1 13 14
M  V30 14 1 14 15
M  V30 15 1 15 16
M  V30 16 1 16 17
M  V30 17 1 17 18
M  V30 18 1 18 19
M  V30 19 2 19 20
M  V30 20 1 19 21
M  V30 21 1 20 22
M  V30 22 1 20 23
M  V30 23 2 21 24
M  V30 24 2 22 25
M  V30 25 1 23 26
M  V30 26 1 25 27
M  V30 27 1 26 28
M  V30 28 1 27 29
M  V30 29 2 29 30
M  V30 30 1 29 31
M  V30 31 1 30 32
M  V30 32 2 31 33
M  V30 33 2 32 34
M  V30 34 1 34 35
M  V30 35 1 5 7
M  V30 36 1 12 13
M  V30 37 1 24 25
M  V30 38 1 33 34
M  V30 END BOND
M  V30 BEGIN COLLECTION
M  V30 MDLV30/STERAC1 ATOMS=(1 3)
M  V30 END COLLECTION
M  V30 END CTAB
M  END
>  <Molecule ChEMBL ID>
CHEMBL300026

>  <Smiles>
CCCc1cc(Oc2ccc(F)cc2)ccc1OCCCOc1ccc(C2SC(=O)NC2=O)cc1

>  <IC50_nM>
820

>  <Assay Description>
In vitro binding affinity against human PPAR gamma (peroxisome proliferator-activated gamma receptor)

$$$$
CHEMBL201036
Actelion Java MolfileCreator 2.0

  0  0  0  0  0  0              0 V3000
M  V30 BEGIN CTAB
M  V30 COUNTS 39 43 0 0 0
M  V30 BEGIN ATOM
M  V30 1 O 9.5262 -2.9999 0.0 0
M  V30 2 C 8.6602 -3.5 0.0 0
M  V30 3 C 7.7942 -2.9999 0.0 0
M  V30 4 C 8.6602 -4.5 0.0 0
M  V30 5 C 7.7942 -1.9999 0.0 0
M  V30 6 C 6.9282 -3.4999 0.0 0
M  V30 7 C 7.7942 -4.9999 0.0 0
M  V30 8 C 9.5262 -5.0 0.0 0
M  V30 9 C 6.9282 -1.4999 0.0 0
M  V30 10 C 6.0621 -2.9999 0.0 0
M  V30 11 C 7.7942 -5.9999 0.0 0
M  V30 12 C 9.5262 -6.0 0.0 0
M  V30 13 C 6.0621 -1.9999 0.0 0
M  V30 14 C 6.9282 -0.5 0.0 0
M  V30 15 C 8.6602 -6.4999 0.0 0
M  V30 16 C 5.1961 -1.4999 0.0 0
M  V30 17 C 6.0621 0.0 0.0 0
M  V30 18 C 5.1961 -0.5 0.0 0
M  V30 19 C 4.3301 -1.9999 0.0 0
M  V30 20 O 4.3301 0.0 0.0 0
M  V30 21 C 3.4641 -1.4999 0.0 0
M  V30 22 C 3.4641 -0.5 0.0 0
M  V30 23 C 2.598 -1.9999 0.0 0
M  V30 24 C 2.598 0.0 0.0 0
M  V30 25 C 1.732 -0.5 0.0 0
M  V30 26 O 0.866 0.0 0.0 0
M  V30 27 C 0.0 -0.5 0.0 0
M  V30 28 C 0.0 -1.5 0.0 0
M  V30 29 C -0.866 0.0 0.0 0
M  V30 30 C -0.866 -1.9999 0.0 0
M  V30 31 C 0.7431 -2.1691 0.0 0
M  V30 32 C -1.732 -0.4999 0.0 0
M  V30 33 N -0.6581 -2.9781 0.0 0
M  V30 34 C -1.732 -1.4999 0.0 0
M  V30 35 C 0.3364 -3.0826 0.0 0
M  V30 36 C -1.3272 -3.7212 0.0 0
M  V30 37 C -2.3053 -3.5133 0.0 0
M  V30 38 O -2.6144 -2.5623 0.0 0
M  V30 39 O -2.9745 -4.2565 0.0 0
M  V30 END ATOM
M  V30 BEGIN BOND
M  V30 1 2 1 2
M  V30 2 1 2 3
M  V30 3 1 2 4
M  V30 4 2 3 5
M  V30 5 1 3 6
M  V30 6 2 4 7
M  V30 7 1 4 8
M  V30 8 1 5 9
M  V30 9 2 6 10
M  V30 10 1 7 11
M  V30 11 2 8 12
M  V30 12 1 9 13
M  V30 13 2 9 14
M  V30 14 2 11 15
M  V30 15 2 13 16
M  V30 16 1 14 17
M  V30 17 1 16 18
M  V30 18 1 16 19
M  V30 19 1 18 20
M  V30 20 1 19 21
M  V30 21 1 20 22
M  V30 22 1 21 23
M  V30 23 1 22 24
M  V30 24 1 24 25
M  V30 25 1 25 26
M  V30 26 1 26 27
M  V30 27 2 27 28
M  V30 28 1 27 29
M  V30 29 1 28 30
M  V30 30 1 28 31
M  V30 31 2 29 32
M  V30 32 1 30 33
M  V30 33 2 30 34
M  V30 34 2 31 35
M  V30 35 1 33 36
M  V30 36 1 36 37
M  V30 37 2 37 38
M  V30 38 1 37 39
M  V30 39 1 10 13
M  V30 40 1 12 15
M  V30 41 2 17 18
M  V30 42 1 32 34
M  V30 43 1 33 35
M  V30 END BOND
M  V30 END CTAB
M  END
>  <Molecule ChEMBL ID>
CHEMBL201036

>  <Smiles>
CCCc1c(OCCCOc2cccc3c2ccn3CC(=O)O)ccc2cc(C(=O)c3ccccc3)ccc12

>  <IC50_nM>
824

>  <Assay Description>
Displacement of [3H]rosiglitazone from human PPAR gamma by SPA assay

$$$$
CHEMBL201036
Actelion Java MolfileCreator 2.0

  0  0  0  0  0  0              0 V3000
M  V30 BEGIN CTAB
M  V30 COUNTS 39 43 0 0 0
M  V30 BEGIN ATOM
M  V30 1 O 9.5262 -2.9999 0.0 0
M  V30 2 C 8.6602 -3.5 0.0 0
M  V30 3 C 7.7942 -2.9999 0.0 0
M  V30 4 C 8.6602 -4.5 0.0 0
M  V30 5 C 7.7942 -1.9999 0.0 0
M  V30 6 C 6.9282 -3.4999 0.0 0
M  V30 7 C 7.7942 -4.9999 0.0 0
M  V30 8 C 9.5262 -5.0 0.0 0
M  V30 9 C 6.9282 -1.4999 0.0 0
M  V30 10 C 6.0621 -2.9999 0.0 0
M  V30 11 C 7.7942 -5.9999 0.0 0
M  V30 12 C 9.5262 -6.0 0.0 0
M  V30 13 C 6.0621 -1.9999 0.0 0
M  V30 14 C 6.9282 -0.5 0.0 0
M  V30 15 C 8.6602 -6.4999 0.0 0
M  V30 16 C 5.1961 -1.4999 0.0 0
M  V30 17 C 6.0621 0.0 0.0 0
M  V30 18 C 5.1961 -0.5 0.0 0
M  V30 19 C 4.3301 -1.9999 0.0 0
M  V30 20 O 4.3301 0.0 0.0 0
M  V30 21 C 3.4641 -1.4999 0.0 0
M  V30 22 C 3.4641 -0.5 0.0 0
M  V30 23 C 2.598 -1.9999 0.0 0
M  V30 24 C 2.598 0.0 0.0 0
M  V30 25 C 1.732 -0.5 0.0 0
M  V30 26 O 0.866 0.0 0.0 0
M  V30 27 C 0.0 -0.5 0.0 0
M  V30 28 C 0.0 -1.5 0.0 0
M  V30 29 C -0.866 0.0 0.0 0
M  V30 30 C -0.866 -1.9999 0.0 0
M  V30 31 C 0.7431 -2.1691 0.0 0
M  V30 32 C -1.732 -0.4999 0.0 0
M  V30 33 N -0.6581 -2.9781 0.0 0
M  V30 34 C -1.732 -1.4999 0.0 0
M  V30 35 C 0.3364 -3.0826 0.0 0
M  V30 36 C -1.3272 -3.7212 0.0 0
M  V30 37 C -2.3053 -3.5133 0.0 0
M  V30 38 O -2.6144 -2.5623 0.0 0
M  V30 39 O -2.9745 -4.2565 0.0 0
M  V30 END ATOM
M  V30 BEGIN BOND
M  V30 1 2 1 2
M  V30 2 1 2 3
M  V30 3 1 2 4
M  V30 4 2 3 5
M  V30 5 1 3 6
M  V30 6 2 4 7
M  V30 7 1 4 8
M  V30 8 1 5 9
M  V30 9 2 6 10
M  V30 10 1 7 11
M  V30 11 2 8 12
M  V30 12 1 9 13
M  V30 13 2 9 14
M  V30 14 2 11 15
M  V30 15 2 13 16
M  V30 16 1 14 17
M  V30 17 1 16 18
M  V30 18 1 16 19
M  V30 19 1 18 20
M  V30 20 1 19 21
M  V30 21 1 20 22
M  V30 22 1 21 23
M  V30 23 1 22 24
M  V30 24 1 24 25
M  V30 25 1 25 26
M  V30 26 1 26 27
M  V30 27 2 27 28
M  V30 28 1 27 29
M  V30 29 1 28 30
M  V30 30 1 28 31
M  V30 31 2 29 32
M  V30 32 1 30 33
M  V30 33 2 30 34
M  V30 34 2 31 35
M  V30 35 1 33 36
M  V30 36 1 36 37
M  V30 37 2 37 38
M  V30 38 1 37 39
M  V30 39 1 10 13
M  V30 40 1 12 15
M  V30 41 2 17 18
M  V30 42 1 32 34
M  V30 43 1 33 35
M  V30 END BOND
M  V30 END CTAB
M  END
>  <Molecule ChEMBL ID>
CHEMBL201036

>  <Smiles>
CCCc1c(OCCCOc2cccc3c2ccn3CC(=O)O)ccc2cc(C(=O)c3ccccc3)ccc12

>  <IC50_nM>
824.14

>  <Assay Description>
Agonist activity at PPARgamma

$$$$
CHEMBL560513
Actelion Java MolfileCreator 2.0

  0  0  0  0  0  0              0 V3000
M  V30 BEGIN CTAB
M  V30 COUNTS 21 20 0 0 0
M  V30 BEGIN ATOM
M  V30 1 O 12.9903 2.25 0.0 0
M  V30 2 N 11.6913 1.5 0.0 0 CHG=1
M  V30 3 O 10.3923 2.25 0.0 0 CHG=-1
M  V30 4 C 11.6913 0.0 0.0 0
M  V30 5 C 12.9903 -0.75 0.0 0
M  V30 6 C 10.3923 -0.75 0.0 0
M  V30 7 C 12.9903 -2.25 0.0 0
M  V30 8 C 9.0932 0.0 0.0 0
M  V30 9 C 14.2894 -2.9999 0.0 0
M  V30 10 C 7.7942 -0.75 0.0 0
M  V30 11 C 14.2894 -4.5 0.0 0
M  V30 12 C 6.4951 0.0 0.0 0
M  V30 13 C 15.5884 -5.25 0.0 0
M  V30 14 C 5.1961 -0.75 0.0 0
M  V30 15 C 15.5884 -6.7499 0.0 0
M  V30 16 C 3.8971 0.0 0.0 0
M  V30 17 C 16.8874 -7.4999 0.0 0
M  V30 18 C 2.598 -0.75 0.0 0
M  V30 19 C 1.299 0.0 0.0 0
M  V30 20 O 1.299 1.5 0.0 0
M  V30 21 O 0.0 -0.75 0.0 0
M  V30 END ATOM
M  V30 BEGIN BOND
M  V30 1 2 1 2
M  V30 2 1 2 3
M  V30 3 1 2 4
M  V30 4 2 4 5
M  V30 5 1 4 6
M  V30 6 1 5 7
M  V30 7 1 6 8
M  V30 8 1 7 9
M  V30 9 1 8 10
M  V30 10 1 9 11
M  V30 11 1 10 12
M  V30 12 1 11 13
M  V30 13 1 12 14
M  V30 14 1 13 15
M  V30 15 1 14 16
M  V30 16 1 15 17
M  V30 17 1 16 18
M  V30 18 1 18 19
M  V30 19 2 19 20
M  V30 20 1 19 21
M  V30 END BOND
M  V30 END CTAB
M  END
>  <Molecule ChEMBL ID>
CHEMBL560513

>  <Smiles>
CCCCCC/C=C(\CCCCCCCC(=O)O)[N+](=O)[O-]

>  <IC50_nM>
830

>  <Assay Description>
Displacement of [3H2]nTZD3 from GST-tagged human recombinant PPARgamma by scintillation proximity assay

$$$$
CHEMBL5075652
Actelion Java MolfileCreator 2.0

  0  0  0  0  0  0              0 V3000
M  V30 BEGIN CTAB
M  V30 COUNTS 38 41 0 0 0
M  V30 BEGIN ATOM
M  V30 1 S 10.3761 -2.9418 0.0 0
M  V30 2 O 10.688 -4.409 0.0 0
M  V30 3 O 11.8027 -3.4053 0.0 0
M  V30 4 N 8.9089 -3.2536 0.0 0
M  V30 5 C 10.8397 -1.5152 0.0 0
M  V30 6 C 7.7942 -2.25 0.0 0
M  V30 7 C 8.2988 -4.624 0.0 0
M  V30 8 C 12.3069 -1.2033 0.0 0
M  V30 9 C 9.836 -0.4005 0.0 0
M  V30 10 C 6.4951 -3.0 0.0 0
M  V30 11 C 7.7942 -0.75 0.0 0
M  V30 12 C 6.807 -4.4672 0.0 0
M  V30 13 C 12.7704 0.2232 0.0 0
M  V30 14 C 10.2995 1.026 0.0 0
M  V30 15 C 5.1961 -2.25 0.0 0
M  V30 16 C 6.4951 0.0 0.0 0
M  V30 17 F 14.2376 0.535 0.0 0
M  V30 18 C 11.7667 1.3379 0.0 0
M  V30 19 C 5.1961 -0.75 0.0 0
M  V30 20 C 3.8971 0.0 0.0 0
M  V30 21 O 3.8971 1.5 0.0 0
M  V30 22 N 2.598 -0.75 0.0 0
M  V30 23 C 1.299 0.0 0.0 0
M  V30 24 C 0.0 -0.75 0.0 0
M  V30 25 C -1.299 0.0 0.0 0
M  V30 26 C 0.0 -2.25 0.0 0
M  V30 27 C -2.598 -0.75 0.0 0
M  V30 28 C -1.299 1.5 0.0 0
M  V30 29 C -1.299 -3.0 0.0 0
M  V30 30 C -2.598 -2.25 0.0 0
M  V30 31 F -2.799 1.5 0.0 0
M  V30 32 F -1.299 3.0 0.0 0
M  V30 33 F 0.2009 1.5 0.0 0
M  V30 34 C -3.8971 -3.0 0.0 0
M  V30 35 S -3.8971 -4.5 0.0 0
M  V30 36 O -5.3971 -4.5 0.0 0
M  V30 37 O -2.3971 -4.5 0.0 0
M  V30 38 C -3.8971 -6.0 0.0 0
M  V30 END ATOM
M  V30 BEGIN BOND
M  V30 1 2 1 2
M  V30 2 2 1 3
M  V30 3 1 1 4
M  V30 4 1 1 5
M  V30 5 1 4 6
M  V30 6 1 4 7
M  V30 7 2 5 8
M  V30 8 1 5 9
M  V30 9 2 6 10
M  V30 10 1 6 11
M  V30 11 2 7 12
M  V30 12 1 8 13
M  V30 13 2 9 14
M  V30 14 1 10 15
M  V30 15 2 11 16
M  V30 16 1 13 17
M  V30 17 2 13 18
M  V30 18 2 15 19
M  V30 19 1 19 20
M  V30 20 2 20 21
M  V30 21 1 20 22
M  V30 22 1 22 23
M  V30 23 1 23 24
M  V30 24 2 24 25
M  V30 25 1 24 26
M  V30 26 1 25 27
M  V30 27 1 25 28
M  V30 28 2 26 29
M  V30 29 2 27 30
M  V30 30 1 28 31
M  V30 31 1 28 32
M  V30 32 1 28 33
M  V30 33 1 30 34
M  V30 34 1 34 35
M  V30 35 2 35 36
M  V30 36 2 35 37
M  V30 37 1 35 38
M  V30 38 1 10 12
M  V30 39 1 14 18
M  V30 40 1 16 19
M  V30 41 1 29 30
M  V30 END BOND
M  V30 END CTAB
M  END
>  <Molecule ChEMBL ID>
CHEMBL5075652

>  <Smiles>
CS(=O)(=O)Cc1ccc(CNC(=O)c2ccc3c(ccn3S(=O)(=O)c3cccc(F)c3)c2)c(C(F)(F)F)c1

>  <IC50_nM>
840

>  <Assay Description>
Partial agonist activity at recombinant sGSF-PPARgamma (unknown origin) assessed as reduction in rosiglitazone induced CBP-1 recruitment incubated for 1 hr by HTRF competitive assay

$$$$
CHEMBL500257
Actelion Java MolfileCreator 2.0

  0  0  0  0  0  0              0 V3000
M  V30 BEGIN CTAB
M  V30 COUNTS 26 27 0 0 0
M  V30 BEGIN ATOM
M  V30 1 O 7.7942 1.0 0.0 0
M  V30 2 C 7.7942 0.0 0.0 0
M  V30 3 C 6.9282 -0.5 0.0 0
M  V30 4 C 8.6602 -0.4999 0.0 0
M  V30 5 C 6.9282 -1.4999 0.0 0
M  V30 6 C 6.0621 0.0 0.0 0
M  V30 7 C 8.6602 -1.4999 0.0 0
M  V30 8 O 6.0621 -1.9999 0.0 0
M  V30 9 C 7.7942 -2.0 0.0 0
M  V30 10 C 5.1961 -0.5 0.0 0
M  V30 11 C 9.5262 -1.9999 0.0 0
M  V30 12 C 4.3301 0.0 0.0 0
M  V30 13 C 9.5262 -2.9999 0.0 0
M  V30 14 C 3.4641 -0.5 0.0 0
M  V30 15 C 4.3301 1.0 0.0 0
M  V30 16 C 10.3923 -3.4999 0.0 0
M  V30 17 C 2.598 0.0 0.0 0
M  V30 18 C 10.3923 -4.4999 0.0 0
M  V30 19 C 11.2583 -2.9999 0.0 0
M  V30 20 C 1.732 -0.5 0.0 0
M  V30 21 C 11.2583 -4.9999 0.0 0
M  V30 22 C 12.1243 -3.4999 0.0 0
M  V30 23 C 0.866 0.0 0.0 0
M  V30 24 C 12.1243 -4.4999 0.0 0
M  V30 25 C 0.866 1.0 0.0 0
M  V30 26 C 0.0 -0.5 0.0 0
M  V30 END ATOM
M  V30 BEGIN BOND
M  V30 1 1 1 2
M  V30 2 2 2 3
M  V30 3 1 2 4
M  V30 4 1 3 5
M  V30 5 1 3 6
M  V30 6 2 4 7
M  V30 7 1 5 8
M  V30 8 2 5 9
M  V30 9 1 6 10
M  V30 10 1 7 11
M  V30 11 2 10 12
M  V30 12 2 11 13
M  V30 13 1 12 14
M  V30 14 1 12 15
M  V30 15 1 13 16
M  V30 16 1 14 17
M  V30 17 2 16 18
M  V30 18 1 16 19
M  V30 19 1 17 20
M  V30 20 1 18 21
M  V30 21 2 19 22
M  V30 22 2 20 23
M  V30 23 2 21 24
M  V30 24 1 23 25
M  V30 25 1 23 26
M  V30 26 1 7 9
M  V30 27 1 22 24
M  V30 END BOND
M  V30 END CTAB
M  END
>  <Molecule ChEMBL ID>
CHEMBL500257

>  <Smiles>
CC(C)=CCC/C(C)=C/Cc1c(O)cc(/C=C/c2ccccc2)cc1O

>  <IC50_nM>
850

>  <Assay Description>
Binding affinity to GST-tagged human PPARgamma by TR-FRET analysis

$$$$
CHEMBL205665
Actelion Java MolfileCreator 2.0

  0  0  0  0  0  0              0 V3000
M  V30 BEGIN CTAB
M  V30 COUNTS 26 27 0 0 0
M  V30 BEGIN ATOM
M  V30 1 Cl 6.0621 1.0 0.0 0
M  V30 2 C 6.0621 0.0 0.0 0
M  V30 3 C 5.1961 -0.5 0.0 0
M  V30 4 C 6.9282 -0.4999 0.0 0
M  V30 5 O 4.3301 0.0 0.0 0
M  V30 6 C 5.1961 -1.4999 0.0 0
M  V30 7 C 6.9282 -1.4999 0.0 0
M  V30 8 C 3.4641 -0.5 0.0 0
M  V30 9 C 6.0621 -1.9999 0.0 0
M  V30 10 C 2.598 0.0 0.0 0
M  V30 11 C 1.732 -0.5 0.0 0
M  V30 12 O 0.866 0.0 0.0 0
M  V30 13 C 0.0 -0.5 0.0 0
M  V30 14 C -0.866 0.0 0.0 0
M  V30 15 C 0.0 -1.4999 0.0 0
M  V30 16 C -1.732 -0.4999 0.0 0
M  V30 17 C -0.866 -1.9999 0.0 0
M  V30 18 C -1.732 -1.4999 0.0 0
M  V30 19 C -2.598 -1.9999 0.0 0
M  V30 20 C -2.598 -2.9999 0.0 0 CFG=1
M  V30 21 C -1.732 -3.4999 0.0 0
M  V30 22 C -3.4641 -3.4999 0.0 0
M  V30 23 C -1.732 -2.4999 0.0 0
M  V30 24 O -0.866 -2.9999 0.0 0
M  V30 25 O -1.732 -4.4999 0.0 0
M  V30 26 C -3.4641 -4.4999 0.0 0
M  V30 END ATOM
M  V30 BEGIN BOND
M  V30 1 1 1 2
M  V30 2 2 2 3
M  V30 3 1 2 4
M  V30 4 1 3 5
M  V30 5 1 3 6
M  V30 6 2 4 7
M  V30 7 1 5 8
M  V30 8 2 6 9
M  V30 9 1 8 10
M  V30 10 1 10 11
M  V30 11 1 11 12
M  V30 12 1 12 13
M  V30 13 2 13 14
M  V30 14 1 13 15
M  V30 15 1 14 16
M  V30 16 2 15 17
M  V30 17 2 16 18
M  V30 18 1 18 19
M  V30 19 1 19 20
M  V30 20 1 20 21
M  V30 21 1 20 22
M  V30 22 1 20 23 CFG=3
M  V30 23 2 21 24
M  V30 24 1 21 25
M  V30 25 1 22 26
M  V30 26 1 7 9
M  V30 27 1 17 18
M  V30 END BOND
M  V30 BEGIN COLLECTION
M  V30 MDLV30/STEABS ATOMS=(1 20)
M  V30 END COLLECTION
M  V30 END CTAB
M  END
>  <Molecule ChEMBL ID>
CHEMBL205665

>  <Smiles>
CC[C@@](C)(Cc1ccc(OCCCOc2ccccc2Cl)cc1)C(=O)O

>  <IC50_nM>
851

>  <Assay Description>
Binding affinity to human PPAR gamma

$$$$
CHEMBL205665
Actelion Java MolfileCreator 2.0

  0  0  0  0  0  0              0 V3000
M  V30 BEGIN CTAB
M  V30 COUNTS 26 27 0 0 0
M  V30 BEGIN ATOM
M  V30 1 Cl 6.0621 1.0 0.0 0
M  V30 2 C 6.0621 0.0 0.0 0
M  V30 3 C 5.1961 -0.5 0.0 0
M  V30 4 C 6.9282 -0.4999 0.0 0
M  V30 5 O 4.3301 0.0 0.0 0
M  V30 6 C 5.1961 -1.4999 0.0 0
M  V30 7 C 6.9282 -1.4999 0.0 0
M  V30 8 C 3.4641 -0.5 0.0 0
M  V30 9 C 6.0621 -1.9999 0.0 0
M  V30 10 C 2.598 0.0 0.0 0
M  V30 11 C 1.732 -0.5 0.0 0
M  V30 12 O 0.866 0.0 0.0 0
M  V30 13 C 0.0 -0.5 0.0 0
M  V30 14 C -0.866 0.0 0.0 0
M  V30 15 C 0.0 -1.4999 0.0 0
M  V30 16 C -1.732 -0.4999 0.0 0
M  V30 17 C -0.866 -1.9999 0.0 0
M  V30 18 C -1.732 -1.4999 0.0 0
M  V30 19 C -2.598 -1.9999 0.0 0
M  V30 20 C -2.598 -2.9999 0.0 0 CFG=1
M  V30 21 C -1.732 -3.4999 0.0 0
M  V30 22 C -3.4641 -3.4999 0.0 0
M  V30 23 C -1.732 -2.4999 0.0 0
M  V30 24 O -0.866 -2.9999 0.0 0
M  V30 25 O -1.732 -4.4999 0.0 0
M  V30 26 C -3.4641 -4.4999 0.0 0
M  V30 END ATOM
M  V30 BEGIN BOND
M  V30 1 1 1 2
M  V30 2 2 2 3
M  V30 3 1 2 4
M  V30 4 1 3 5
M  V30 5 1 3 6
M  V30 6 2 4 7
M  V30 7 1 5 8
M  V30 8 2 6 9
M  V30 9 1 8 10
M  V30 10 1 10 11
M  V30 11 1 11 12
M  V30 12 1 12 13
M  V30 13 2 13 14
M  V30 14 1 13 15
M  V30 15 1 14 16
M  V30 16 2 15 17
M  V30 17 2 16 18
M  V30 18 1 18 19
M  V30 19 1 19 20
M  V30 20 1 20 21
M  V30 21 1 20 22
M  V30 22 1 20 23 CFG=3
M  V30 23 2 21 24
M  V30 24 1 21 25
M  V30 25 1 22 26
M  V30 26 1 7 9
M  V30 27 1 17 18
M  V30 END BOND
M  V30 BEGIN COLLECTION
M  V30 MDLV30/STEABS ATOMS=(1 20)
M  V30 END COLLECTION
M  V30 END CTAB
M  END
>  <Molecule ChEMBL ID>
CHEMBL205665

>  <Smiles>
CC[C@@](C)(Cc1ccc(OCCCOc2ccccc2Cl)cc1)C(=O)O

>  <IC50_nM>
851.14

>  <Assay Description>
Agonist activity at PPARgamma

$$$$
CHEMBL595
Actelion Java MolfileCreator 2.0

  0  0  0  0  0  0              0 V3000
M  V30 BEGIN CTAB
M  V30 COUNTS 25 27 0 0 0
M  V30 BEGIN ATOM
M  V30 1 S 5.2531 -3.5877 0.0 0
M  V30 2 C 5.5621 -4.5388 0.0 0
M  V30 3 C 6.0621 -3.0 0.0 0 CFG=2
M  V30 4 O 4.9743 -5.3478 0.0 0
M  V30 5 N 6.5621 -4.5388 0.0 0
M  V30 6 C 6.8711 -3.5877 0.0 0
M  V30 7 C 6.0621 -1.9999 0.0 0
M  V30 8 O 7.8222 -3.2787 0.0 0
M  V30 9 C 5.1961 -1.4999 0.0 0
M  V30 10 C 5.1961 -0.5 0.0 0
M  V30 11 C 4.3301 -1.9999 0.0 0
M  V30 12 C 4.3301 0.0 0.0 0
M  V30 13 C 3.4641 -1.5 0.0 0
M  V30 14 C 3.4641 -0.5 0.0 0
M  V30 15 O 2.598 0.0 0.0 0
M  V30 16 C 1.732 -0.5 0.0 0
M  V30 17 C 0.866 0.0 0.0 0
M  V30 18 C 0.0 -0.5 0.0 0
M  V30 19 N -0.866 0.0 0.0 0
M  V30 20 C 0.0 -1.4999 0.0 0
M  V30 21 C -1.732 -0.4999 0.0 0
M  V30 22 C -0.866 -1.9999 0.0 0
M  V30 23 C -1.732 -1.4999 0.0 0
M  V30 24 C -2.598 -1.9999 0.0 0
M  V30 25 C -2.598 -2.9999 0.0 0
M  V30 END ATOM
M  V30 BEGIN BOND
M  V30 1 1 1 2
M  V30 2 1 1 3
M  V30 3 2 2 4
M  V30 4 1 2 5
M  V30 5 1 3 6
M  V30 6 1 3 7 CFG=1
M  V30 7 2 6 8
M  V30 8 1 7 9
M  V30 9 2 9 10
M  V30 10 1 9 11
M  V30 11 1 10 12
M  V30 12 2 11 13
M  V30 13 2 12 14
M  V30 14 1 14 15
M  V30 15 1 15 16
M  V30 16 1 16 17
M  V30 17 1 17 18
M  V30 18 2 18 19
M  V30 19 1 18 20
M  V30 20 1 19 21
M  V30 21 2 20 22
M  V30 22 2 21 23
M  V30 23 1 23 24
M  V30 24 1 24 25
M  V30 25 1 5 6
M  V30 26 1 13 14
M  V30 27 1 22 23
M  V30 END BOND
M  V30 BEGIN COLLECTION
M  V30 MDLV30/STERAC1 ATOMS=(1 3)
M  V30 END COLLECTION
M  V30 END CTAB
M  END
>  <Molecule ChEMBL ID>
CHEMBL595

>  <Smiles>
CCc1ccc(CCOc2ccc(CC3SC(=O)NC3=O)cc2)nc1

>  <IC50_nM>
855

>  <Assay Description>
Displacement of fluormone PPAR-green from N-terminal His-tagged human PPARgamma-LBD after 2 hrs by fluorescence polarization assay

$$$$
CHEMBL256358
Actelion Java MolfileCreator 2.0

  0  0  0  0  0  0              0 V3000
M  V30 BEGIN CTAB
M  V30 COUNTS 38 41 0 0 0
M  V30 BEGIN ATOM
M  V30 1 O 6.0621 -3.0 0.0 0
M  V30 2 C 5.1961 -3.5 0.0 0
M  V30 3 O 5.1961 -4.5 0.0 0
M  V30 4 N 4.3301 -3.0 0.0 0
M  V30 5 C 4.3301 -5.0 0.0 0
M  V30 6 C 3.4641 -3.5 0.0 0
M  V30 7 C 4.3301 -2.0 0.0 0
M  V30 8 C 4.3301 -6.0 0.0 0
M  V30 9 C 2.598 -3.0 0.0 0
M  V30 10 C 3.4641 -1.5 0.0 0
M  V30 11 C 5.1961 -6.5 0.0 0
M  V30 12 C 3.4641 -6.5 0.0 0
M  V30 13 C 2.598 -2.0 0.0 0 CFG=1
M  V30 14 C 1.732 -3.5 0.0 0
M  V30 15 C 1.732 -1.5 0.0 0
M  V30 16 C 1.732 -4.5 0.0 0
M  V30 17 O 0.866 -2.0 0.0 0
M  V30 18 O 1.732 -0.5 0.0 0
M  V30 19 C 0.866 -5.0 0.0 0
M  V30 20 C 2.598 -4.9999 0.0 0
M  V30 21 C 0.866 -5.9999 0.0 0
M  V30 22 C 2.598 -5.9999 0.0 0
M  V30 23 O 0.0 -6.5 0.0 0
M  V30 24 C 1.732 -6.4999 0.0 0
M  V30 25 C 0.0 -7.5 0.0 0
M  V30 26 C -0.866 -7.9999 0.0 0
M  V30 27 C -0.866 -9.0 0.0 0
M  V30 28 N -1.675 -9.5877 0.0 0
M  V30 29 C -0.057 -9.5877 0.0 0
M  V30 30 C -1.366 -10.5388 0.0 0
M  V30 31 O -0.366 -10.5388 0.0 0
M  V30 32 C 0.894 -9.2787 0.0 0
M  V30 33 C -1.9538 -11.3478 0.0 0
M  V30 34 C -2.9483 -11.2433 0.0 0
M  V30 35 C -1.547 -12.2614 0.0 0
M  V30 36 C -3.5361 -12.0523 0.0 0
M  V30 37 C -2.1348 -13.0704 0.0 0
M  V30 38 C -3.1293 -12.9658 0.0 0
M  V30 END ATOM
M  V30 BEGIN BOND
M  V30 1 2 1 2
M  V30 2 1 2 3
M  V30 3 1 2 4
M  V30 4 1 3 5
M  V30 5 1 4 6
M  V30 6 1 4 7
M  V30 7 1 5 8
M  V30 8 2 6 9
M  V30 9 1 7 10
M  V30 10 1 8 11
M  V30 11 1 8 12
M  V30 12 1 9 13
M  V30 13 1 9 14
M  V30 14 1 13 15 CFG=3
M  V30 15 1 14 16
M  V30 16 2 15 17
M  V30 17 1 15 18
M  V30 18 2 16 19
M  V30 19 1 16 20
M  V30 20 1 19 21
M  V30 21 2 20 22
M  V30 22 1 21 23
M  V30 23 2 21 24
M  V30 24 1 23 25
M  V30 25 1 25 26
M  V30 26 1 26 27
M  V30 27 1 27 28
M  V30 28 2 27 29
M  V30 29 2 28 30
M  V30 30 1 29 31
M  V30 31 1 29 32
M  V30 32 1 30 33
M  V30 33 2 33 34
M  V30 34 1 33 35
M  V30 35 1 34 36
M  V30 36 2 35 37
M  V30 37 2 36 38
M  V30 38 1 10 13
M  V30 39 1 22 24
M  V30 40 1 30 31
M  V30 41 1 37 38
M  V30 END BOND
M  V30 BEGIN COLLECTION
M  V30 MDLV30/STERAC1 ATOMS=(1 13)
M  V30 END COLLECTION
M  V30 END CTAB
M  END
>  <Molecule ChEMBL ID>
CHEMBL256358

>  <Smiles>
Cc1oc(-c2ccccc2)nc1CCOc1cccc(CC2=CN(C(=O)OCC(C)C)CCC2C(=O)O)c1

>  <IC50_nM>
861

>  <Assay Description>
Binding affinity at human PPARalpha by fluorescence polarization

$$$$
CHEMBL1090189
Actelion Java MolfileCreator 2.0

  0  0  0  0  0  0              0 V3000
M  V30 BEGIN CTAB
M  V30 COUNTS 38 41 0 0 0
M  V30 BEGIN ATOM
M  V30 1 O 5.1961 1.4999 0.0 0
M  V30 2 C 4.3301 0.9999 0.0 0
M  V30 3 O 4.3301 0.0 0.0 0
M  V30 4 N 3.4641 1.4999 0.0 0
M  V30 5 C 5.1961 -0.5 0.0 0
M  V30 6 C 2.598 1.0 0.0 0
M  V30 7 C 3.4641 2.4999 0.0 0
M  V30 8 C 6.0621 0.0 0.0 0
M  V30 9 C 5.1961 -1.5 0.0 0
M  V30 10 C 1.732 1.5 0.0 0
M  V30 11 C 4.3301 2.9999 0.0 0
M  V30 12 C 6.9282 -0.5 0.0 0
M  V30 13 C 6.0621 -2.0 0.0 0
M  V30 14 C 1.732 2.5 0.0 0
M  V30 15 C 0.866 1.0 0.0 0
M  V30 16 O 5.1961 2.4999 0.0 0
M  V30 17 O 4.3301 3.9999 0.0 0
M  V30 18 C 6.9282 -1.5 0.0 0
M  V30 19 C 0.866 3.0 0.0 0
M  V30 20 C 0.0 1.5 0.0 0
M  V30 21 C 7.7942 -2.0 0.0 0
M  V30 22 O 0.866 4.0 0.0 0
M  V30 23 C 0.0 2.5 0.0 0
M  V30 24 C 1.732 4.5 0.0 0
M  V30 25 C 1.732 5.5 0.0 0
M  V30 26 N 2.541 6.0877 0.0 0
M  V30 27 C 0.923 6.0877 0.0 0
M  V30 28 C 2.232 7.0388 0.0 0
M  V30 29 O 1.232 7.0388 0.0 0
M  V30 30 C -0.028 5.7787 0.0 0
M  V30 31 C 2.8198 7.8478 0.0 0
M  V30 32 C 3.8143 7.7433 0.0 0
M  V30 33 C 2.413 8.7614 0.0 0
M  V30 34 C 4.4021 8.5523 0.0 0
M  V30 35 C 3.0008 9.5704 0.0 0
M  V30 36 C 3.9954 9.4658 0.0 0
M  V30 37 O 4.5831 10.2749 0.0 0
M  V30 38 C 4.1764 11.1884 0.0 0
M  V30 END ATOM
M  V30 BEGIN BOND
M  V30 1 2 1 2
M  V30 2 1 2 3
M  V30 3 1 2 4
M  V30 4 1 3 5
M  V30 5 1 4 6
M  V30 6 1 4 7
M  V30 7 2 5 8
M  V30 8 1 5 9
M  V30 9 1 6 10
M  V30 10 1 7 11
M  V30 11 1 8 12
M  V30 12 2 9 13
M  V30 13 2 10 14
M  V30 14 1 10 15
M  V30 15 2 11 16
M  V30 16 1 11 17
M  V30 17 2 12 18
M  V30 18 1 14 19
M  V30 19 2 15 20
M  V30 20 1 18 21
M  V30 21 1 19 22
M  V30 22 2 19 23
M  V30 23 1 22 24
M  V30 24 1 24 25
M  V30 25 1 25 26
M  V30 26 2 25 27
M  V30 27 2 26 28
M  V30 28 1 27 29
M  V30 29 1 27 30
M  V30 30 1 28 31
M  V30 31 2 31 32
M  V30 32 1 31 33
M  V30 33 1 32 34
M  V30 34 2 33 35
M  V30 35 2 34 36
M  V30 36 1 36 37
M  V30 37 1 37 38
M  V30 38 1 13 18
M  V30 39 1 20 23
M  V30 40 1 28 29
M  V30 41 1 35 36
M  V30 END BOND
M  V30 END CTAB
M  END
>  <Molecule ChEMBL ID>
CHEMBL1090189

>  <Smiles>
COc1ccc(-c2nc(COc3cccc(CN(CC(=O)O)C(=O)Oc4ccc(C)cc4)c3)c(C)o2)cc1

>  <IC50_nM>
873

>  <Assay Description>
Binding affinity to human His-tagged PPARgamma LBD (Q203-Y477) expressed in Escherichia coli BL21 (DE3) by fluorescence polarization assay

$$$$
CHEMBL1093405
Actelion Java MolfileCreator 2.0

  0  0  0  0  0  0              0 V3000
M  V30 BEGIN CTAB
M  V30 COUNTS 21 22 0 0 0
M  V30 BEGIN ATOM
M  V30 1 Cl 5.7669 -4.443 0.0 0
M  V30 2 C 4.7724 -4.3385 0.0 0
M  V30 3 C 4.3657 -3.4249 0.0 0
M  V30 4 C 4.1846 -5.1475 0.0 0
M  V30 5 C 3.3712 -3.3204 0.0 0
M  V30 6 C 4.9535 -2.6159 0.0 0
M  V30 7 C 3.1901 -5.043 0.0 0
M  V30 8 C 2.7834 -4.1294 0.0 0
M  V30 9 C 4.5467 -1.7024 0.0 0
M  V30 10 Cl 2.6023 -5.852 0.0 0
M  V30 11 S 5.0467 -0.8364 0.0 0
M  V30 12 C 3.5686 -1.4945 0.0 0
M  V30 13 C 4.3776 -0.0932 0.0 0
M  V30 14 O 2.8254 -2.1636 0.0 0
M  V30 15 N 3.4641 -0.5 0.0 0
M  V30 16 S 4.5855 0.8848 0.0 0
M  V30 17 C 2.598 0.0 0.0 0
M  V30 18 C 1.732 -0.5 0.0 0
M  V30 19 C 0.866 0.0 0.0 0
M  V30 20 O 0.866 1.0 0.0 0
M  V30 21 O 0.0 -0.5 0.0 0
M  V30 END ATOM
M  V30 BEGIN BOND
M  V30 1 1 1 2
M  V30 2 2 2 3
M  V30 3 1 2 4
M  V30 4 1 3 5
M  V30 5 1 3 6
M  V30 6 2 4 7
M  V30 7 2 5 8
M  V30 8 2 6 9
M  V30 9 1 7 10
M  V30 10 1 9 11
M  V30 11 1 9 12
M  V30 12 1 11 13
M  V30 13 2 12 14
M  V30 14 1 12 15
M  V30 15 2 13 16
M  V30 16 1 15 17
M  V30 17 1 17 18
M  V30 18 1 18 19
M  V30 19 2 19 20
M  V30 20 1 19 21
M  V30 21 1 7 8
M  V30 22 1 13 15
M  V30 END BOND
M  V30 END CTAB
M  END
>  <Molecule ChEMBL ID>
CHEMBL1093405

>  <Smiles>
O=C(O)CCN1C(=O)/C(=C\c2ccc(Cl)cc2Cl)SC1=S

>  <IC50_nM>
876

>  <Assay Description>
Agonist activity at N-terminal His-tagged human PPARgamma ligand binding domain by fluorescence polarization assay

$$$$
CHEMBL474550
Actelion Java MolfileCreator 2.0

  0  0  0  0  0  0              0 V3000
M  V30 BEGIN CTAB
M  V30 COUNTS 36 40 0 0 0
M  V30 BEGIN ATOM
M  V30 1 O 8.0301 -2.3006 0.0 0
M  V30 2 C 7.8222 -3.2787 0.0 0
M  V30 3 O 8.5653 -3.9478 0.0 0
M  V30 4 C 6.8711 -3.5877 0.0 0
M  V30 5 N 6.5621 -4.5388 0.0 0
M  V30 6 C 6.0621 -2.9999 0.0 0
M  V30 7 N 5.5621 -4.5388 0.0 0
M  V30 8 C 7.1499 -5.3478 0.0 0
M  V30 9 N 5.2531 -3.5877 0.0 0
M  V30 10 C 6.0621 -1.9999 0.0 0
M  V30 11 C 8.1444 -5.2433 0.0 0
M  V30 12 C 6.7432 -6.2614 0.0 0
M  V30 13 C 5.1961 -1.4999 0.0 0
M  V30 14 C 8.7322 -6.0523 0.0 0
M  V30 15 C 7.331 -7.0704 0.0 0
M  V30 16 C 5.1961 -0.5 0.0 0
M  V30 17 C 4.3301 -1.9999 0.0 0
M  V30 18 C 8.3255 -6.9658 0.0 0
M  V30 19 C 4.3301 0.0 0.0 0
M  V30 20 C 3.4641 -1.5 0.0 0
M  V30 21 C 3.4641 -0.5 0.0 0
M  V30 22 O 2.598 0.0 0.0 0
M  V30 23 C 1.732 -0.5 0.0 0
M  V30 24 C 0.866 0.0 0.0 0
M  V30 25 C 0.0 -0.5 0.0 0
M  V30 26 N -0.9135 -0.0932 0.0 0
M  V30 27 C -0.1045 -1.4945 0.0 0
M  V30 28 C -1.5826 -0.8364 0.0 0
M  V30 29 O -1.0826 -1.7024 0.0 0
M  V30 30 C 0.6386 -2.1636 0.0 0
M  V30 31 C -2.5771 -0.7318 0.0 0
M  V30 32 C -2.9839 0.1816 0.0 0
M  V30 33 C -3.1649 -1.5408 0.0 0
M  V30 34 C -3.9784 0.2861 0.0 0
M  V30 35 C -4.1595 -1.4363 0.0 0
M  V30 36 C -4.5662 -0.5228 0.0 0
M  V30 END ATOM
M  V30 BEGIN BOND
M  V30 1 2 1 2
M  V30 2 1 2 3
M  V30 3 1 2 4
M  V30 4 1 4 5
M  V30 5 2 4 6
M  V30 6 1 5 7
M  V30 7 1 5 8
M  V30 8 1 6 9
M  V30 9 1 6 10
M  V30 10 2 8 11
M  V30 11 1 8 12
M  V30 12 1 10 13
M  V30 13 1 11 14
M  V30 14 2 12 15
M  V30 15 2 13 16
M  V30 16 1 13 17
M  V30 17 2 14 18
M  V30 18 1 16 19
M  V30 19 2 17 20
M  V30 20 2 19 21
M  V30 21 1 21 22
M  V30 22 1 22 23
M  V30 23 1 23 24
M  V30 24 1 24 25
M  V30 25 1 25 26
M  V30 26 2 25 27
M  V30 27 2 26 28
M  V30 28 1 27 29
M  V30 29 1 27 30
M  V30 30 1 28 31
M  V30 31 2 31 32
M  V30 32 1 31 33
M  V30 33 1 32 34
M  V30 34 2 33 35
M  V30 35 2 34 36
M  V30 36 2 7 9
M  V30 37 1 15 18
M  V30 38 1 20 21
M  V30 39 1 28 29
M  V30 40 1 35 36
M  V30 END BOND
M  V30 END CTAB
M  END
>  <Molecule ChEMBL ID>
CHEMBL474550

>  <Smiles>
Cc1oc(-c2ccccc2)nc1CCOc1ccc(Cc2nnn(-c3ccccc3)c2C(=O)O)cc1

>  <IC50_nM>
880

>  <Assay Description>
Binding affinity to PPARgamma by fluorescence polarization assay

$$$$
CHEMBL514328
Actelion Java MolfileCreator 2.0

  0  0  0  0  0  0              0 V3000
M  V30 BEGIN CTAB
M  V30 COUNTS 36 40 0 0 0
M  V30 BEGIN ATOM
M  V30 1 O 8.5653 -3.9478 0.0 0
M  V30 2 C 7.8222 -3.2787 0.0 0
M  V30 3 O 8.0301 -2.3006 0.0 0
M  V30 4 C 6.8711 -3.5877 0.0 0
M  V30 5 C 6.0621 -3.0 0.0 0
M  V30 6 C 6.5621 -4.5388 0.0 0
M  V30 7 C 5.2531 -3.5877 0.0 0
M  V30 8 C 6.0621 -2.0 0.0 0
M  V30 9 N 5.5621 -4.5388 0.0 0
M  V30 10 C 5.1961 -1.4999 0.0 0
M  V30 11 C 4.9743 -5.3478 0.0 0
M  V30 12 C 5.1961 -0.5 0.0 0
M  V30 13 C 4.3301 -1.9999 0.0 0
M  V30 14 C 3.9798 -5.2433 0.0 0
M  V30 15 C 5.3811 -6.2614 0.0 0
M  V30 16 C 4.3301 0.0 0.0 0
M  V30 17 C 3.4641 -1.5 0.0 0
M  V30 18 C 3.392 -6.0523 0.0 0
M  V30 19 C 4.7933 -7.0704 0.0 0
M  V30 20 C 3.4641 -0.5 0.0 0
M  V30 21 C 3.7988 -6.9658 0.0 0
M  V30 22 O 2.598 0.0 0.0 0
M  V30 23 C 1.732 -0.5 0.0 0
M  V30 24 C 0.866 0.0 0.0 0
M  V30 25 C 0.0 -0.5 0.0 0
M  V30 26 N -0.9135 -0.0932 0.0 0
M  V30 27 C -0.1045 -1.4945 0.0 0
M  V30 28 C -1.5826 -0.8364 0.0 0
M  V30 29 O -1.0826 -1.7024 0.0 0
M  V30 30 C 0.6386 -2.1636 0.0 0
M  V30 31 C -2.5771 -0.7318 0.0 0
M  V30 32 C -2.9839 0.1816 0.0 0
M  V30 33 C -3.1649 -1.5408 0.0 0
M  V30 34 C -3.9784 0.2861 0.0 0
M  V30 35 C -4.1595 -1.4363 0.0 0
M  V30 36 C -4.5662 -0.5228 0.0 0
M  V30 END ATOM
M  V30 BEGIN BOND
M  V30 1 2 1 2
M  V30 2 1 2 3
M  V30 3 1 2 4
M  V30 4 1 4 5
M  V30 5 2 4 6
M  V30 6 2 5 7
M  V30 7 1 5 8
M  V30 8 1 6 9
M  V30 9 1 8 10
M  V30 10 1 9 11
M  V30 11 2 10 12
M  V30 12 1 10 13
M  V30 13 2 11 14
M  V30 14 1 11 15
M  V30 15 1 12 16
M  V30 16 2 13 17
M  V30 17 1 14 18
M  V30 18 2 15 19
M  V30 19 2 16 20
M  V30 20 2 18 21
M  V30 21 1 20 22
M  V30 22 1 22 23
M  V30 23 1 23 24
M  V30 24 1 24 25
M  V30 25 1 25 26
M  V30 26 2 25 27
M  V30 27 2 26 28
M  V30 28 1 27 29
M  V30 29 1 27 30
M  V30 30 1 28 31
M  V30 31 2 31 32
M  V30 32 1 31 33
M  V30 33 1 32 34
M  V30 34 2 33 35
M  V30 35 2 34 36
M  V30 36 1 7 9
M  V30 37 1 17 20
M  V30 38 1 19 21
M  V30 39 1 28 29
M  V30 40 1 35 36
M  V30 END BOND
M  V30 END CTAB
M  END
>  <Molecule ChEMBL ID>
CHEMBL514328

>  <Smiles>
Cc1oc(-c2ccccc2)nc1CCOc1ccc(Cc2cn(-c3ccccc3)cc2C(=O)O)cc1

>  <IC50_nM>
890

>  <Assay Description>
Binding affinity to PPARgamma by fluorescence polarization assay

$$$$
CHEMBL2031954
Actelion Java MolfileCreator 2.0

  0  0  0  0  0  0              0 V3000
M  V30 BEGIN CTAB
M  V30 COUNTS 28 29 0 0 0
M  V30 BEGIN ATOM
M  V30 1 O 19.4855 -9.0 0.0 0
M  V30 2 C 19.4855 -7.5 0.0 0
M  V30 3 C 18.1865 -6.75 0.0 0
M  V30 4 C 18.1865 -5.2499 0.0 0
M  V30 5 C 16.8874 -7.5 0.0 0
M  V30 6 C 16.8874 -4.5 0.0 0
M  V30 7 C 15.5884 -6.75 0.0 0
M  V30 8 C 15.5884 -5.25 0.0 0
M  V30 9 C 14.2894 -4.5 0.0 0
M  V30 10 C 14.2894 -3.0 0.0 0
M  V30 11 C 12.9903 -2.25 0.0 0
M  V30 12 C 12.9903 -0.75 0.0 0
M  V30 13 C 11.6913 -3.0 0.0 0
M  V30 14 C 11.6913 0.0 0.0 0
M  V30 15 C 10.3923 -2.25 0.0 0
M  V30 16 O 11.6913 1.4999 0.0 0
M  V30 17 C 10.3923 -0.75 0.0 0
M  V30 18 O 9.0932 -2.9999 0.0 0
M  V30 19 C 9.0932 0.0 0.0 0
M  V30 20 C 7.7942 -0.75 0.0 0
M  V30 21 C 6.4951 0.0 0.0 0
M  V30 22 C 5.1961 -0.75 0.0 0
M  V30 23 C 6.4951 1.5 0.0 0
M  V30 24 C 3.8971 0.0 0.0 0
M  V30 25 C 2.598 -0.75 0.0 0
M  V30 26 C 1.299 0.0 0.0 0
M  V30 27 C 1.299 1.5 0.0 0
M  V30 28 C 0.0 -0.75 0.0 0
M  V30 END ATOM
M  V30 BEGIN BOND
M  V30 1 2 1 2
M  V30 2 1 2 3
M  V30 3 2 3 4
M  V30 4 1 3 5
M  V30 5 1 4 6
M  V30 6 2 5 7
M  V30 7 2 6 8
M  V30 8 1 8 9
M  V30 9 2 9 10
M  V30 10 1 10 11
M  V30 11 2 11 12
M  V30 12 1 11 13
M  V30 13 1 12 14
M  V30 14 2 13 15
M  V30 15 1 14 16
M  V30 16 2 14 17
M  V30 17 1 15 18
M  V30 18 1 17 19
M  V30 19 1 19 20
M  V30 20 2 20 21
M  V30 21 1 21 22
M  V30 22 1 21 23
M  V30 23 1 22 24
M  V30 24 1 24 25
M  V30 25 2 25 26
M  V30 26 1 26 27
M  V30 27 1 26 28
M  V30 28 1 7 8
M  V30 29 1 15 17
M  V30 END BOND
M  V30 END CTAB
M  END
>  <Molecule ChEMBL ID>
CHEMBL2031954

>  <Smiles>
CC(C)=CCC/C(C)=C/Cc1c(O)cc(/C=C/c2ccc(C=O)cc2)cc1O

>  <IC50_nM>
890

>  <Assay Description>
Binding affinity to GST-tagged human PPARgamma by TR-FRET analysis

$$$$
CHEMBL360246
Actelion Java MolfileCreator 2.0

  0  0  0  0  0  0              0 V3000
M  V30 BEGIN CTAB
M  V30 COUNTS 34 37 0 0 0
M  V30 BEGIN ATOM
M  V30 1 Cl 9.0932 1.5 0.0 0
M  V30 2 C 9.0932 0.0 0.0 0
M  V30 3 C 7.7942 -0.75 0.0 0
M  V30 4 C 10.3923 -0.7499 0.0 0
M  V30 5 O 6.4951 0.0 0.0 0
M  V30 6 C 7.7942 -2.25 0.0 0
M  V30 7 C 10.3923 -2.2499 0.0 0
M  V30 8 C 5.1961 -0.75 0.0 0
M  V30 9 C 9.0932 -2.9999 0.0 0
M  V30 10 O 11.6913 -2.9999 0.0 0
M  V30 11 C 3.8971 0.0 0.0 0
M  V30 12 C 12.9903 -2.2499 0.0 0
M  V30 13 C 2.598 -0.75 0.0 0
M  V30 14 C 14.2894 -2.9999 0.0 0
M  V30 15 C 12.9903 -0.7499 0.0 0
M  V30 16 O 1.299 0.0 0.0 0
M  V30 17 C 15.5884 -2.25 0.0 0
M  V30 18 C 14.2894 0.0 0.0 0
M  V30 19 C 0.0 -0.75 0.0 0
M  V30 20 C 15.5884 -0.75 0.0 0
M  V30 21 C -1.299 0.0 0.0 0
M  V30 22 C 0.0 -2.25 0.0 0
M  V30 23 F 16.8874 0.0 0.0 0
M  V30 24 C -2.598 -0.7499 0.0 0
M  V30 25 C -1.299 -2.9999 0.0 0
M  V30 26 O -3.8971 0.0 0.0 0
M  V30 27 C -2.598 -2.2499 0.0 0
M  V30 28 C -5.1961 -0.7499 0.0 0 CFG=1
M  V30 29 C -3.8971 -2.9999 0.0 0
M  V30 30 C -6.4951 0.0 0.0 0
M  V30 31 C -5.1961 -2.2499 0.0 0
M  V30 32 C -6.4951 -1.4999 0.0 0
M  V30 33 O -7.7942 -0.7499 0.0 0
M  V30 34 O -6.4951 1.5 0.0 0
M  V30 END ATOM
M  V30 BEGIN BOND
M  V30 1 1 1 2
M  V30 2 2 2 3
M  V30 3 1 2 4
M  V30 4 1 3 5
M  V30 5 1 3 6
M  V30 6 2 4 7
M  V30 7 1 5 8
M  V30 8 2 6 9
M  V30 9 1 7 10
M  V30 10 1 8 11
M  V30 11 1 10 12
M  V30 12 1 11 13
M  V30 13 2 12 14
M  V30 14 1 12 15
M  V30 15 1 13 16
M  V30 16 1 14 17
M  V30 17 2 15 18
M  V30 18 1 16 19
M  V30 19 2 17 20
M  V30 20 2 19 21
M  V30 21 1 19 22
M  V30 22 1 20 23
M  V30 23 1 21 24
M  V30 24 2 22 25
M  V30 25 1 24 26
M  V30 26 2 24 27
M  V30 27 1 26 28
M  V30 28 1 27 29
M  V30 29 1 28 30
M  V30 30 1 28 31
M  V30 31 1 28 32 CFG=1
M  V30 32 2 30 33
M  V30 33 1 30 34
M  V30 34 1 7 9
M  V30 35 1 18 20
M  V30 36 1 25 27
M  V30 37 1 29 31
M  V30 END BOND
M  V30 BEGIN COLLECTION
M  V30 MDLV30/STEABS ATOMS=(1 28)
M  V30 END COLLECTION
M  V30 END CTAB
M  END
>  <Molecule ChEMBL ID>
CHEMBL360246

>  <Smiles>
C[C@]1(C(=O)O)CCc2ccc(OCCCOc3ccc(Oc4ccc(F)cc4)cc3Cl)cc2O1

>  <IC50_nM>
899.5

>  <Assay Description>
Agonist activity at PPARgamma

$$$$
CHEMBL360246
Actelion Java MolfileCreator 2.0

  0  0  0  0  0  0              0 V3000
M  V30 BEGIN CTAB
M  V30 COUNTS 34 37 0 0 0
M  V30 BEGIN ATOM
M  V30 1 Cl 9.0932 1.5 0.0 0
M  V30 2 C 9.0932 0.0 0.0 0
M  V30 3 C 7.7942 -0.75 0.0 0
M  V30 4 C 10.3923 -0.7499 0.0 0
M  V30 5 O 6.4951 0.0 0.0 0
M  V30 6 C 7.7942 -2.25 0.0 0
M  V30 7 C 10.3923 -2.2499 0.0 0
M  V30 8 C 5.1961 -0.75 0.0 0
M  V30 9 C 9.0932 -2.9999 0.0 0
M  V30 10 O 11.6913 -2.9999 0.0 0
M  V30 11 C 3.8971 0.0 0.0 0
M  V30 12 C 12.9903 -2.2499 0.0 0
M  V30 13 C 2.598 -0.75 0.0 0
M  V30 14 C 14.2894 -2.9999 0.0 0
M  V30 15 C 12.9903 -0.7499 0.0 0
M  V30 16 O 1.299 0.0 0.0 0
M  V30 17 C 15.5884 -2.25 0.0 0
M  V30 18 C 14.2894 0.0 0.0 0
M  V30 19 C 0.0 -0.75 0.0 0
M  V30 20 C 15.5884 -0.75 0.0 0
M  V30 21 C -1.299 0.0 0.0 0
M  V30 22 C 0.0 -2.25 0.0 0
M  V30 23 F 16.8874 0.0 0.0 0
M  V30 24 C -2.598 -0.7499 0.0 0
M  V30 25 C -1.299 -2.9999 0.0 0
M  V30 26 O -3.8971 0.0 0.0 0
M  V30 27 C -2.598 -2.2499 0.0 0
M  V30 28 C -5.1961 -0.7499 0.0 0 CFG=1
M  V30 29 C -3.8971 -2.9999 0.0 0
M  V30 30 C -6.4951 0.0 0.0 0
M  V30 31 C -5.1961 -2.2499 0.0 0
M  V30 32 C -6.4951 -1.4999 0.0 0
M  V30 33 O -7.7942 -0.7499 0.0 0
M  V30 34 O -6.4951 1.5 0.0 0
M  V30 END ATOM
M  V30 BEGIN BOND
M  V30 1 1 1 2
M  V30 2 2 2 3
M  V30 3 1 2 4
M  V30 4 1 3 5
M  V30 5 1 3 6
M  V30 6 2 4 7
M  V30 7 1 5 8
M  V30 8 2 6 9
M  V30 9 1 7 10
M  V30 10 1 8 11
M  V30 11 1 10 12
M  V30 12 1 11 13
M  V30 13 2 12 14
M  V30 14 1 12 15
M  V30 15 1 13 16
M  V30 16 1 14 17
M  V30 17 2 15 18
M  V30 18 1 16 19
M  V30 19 2 17 20
M  V30 20 2 19 21
M  V30 21 1 19 22
M  V30 22 1 20 23
M  V30 23 1 21 24
M  V30 24 2 22 25
M  V30 25 1 24 26
M  V30 26 2 24 27
M  V30 27 1 26 28
M  V30 28 1 27 29
M  V30 29 1 28 30
M  V30 30 1 28 31
M  V30 31 1 28 32 CFG=1
M  V30 32 2 30 33
M  V30 33 1 30 34
M  V30 34 1 7 9
M  V30 35 1 18 20
M  V30 36 1 25 27
M  V30 37 1 29 31
M  V30 END BOND
M  V30 BEGIN COLLECTION
M  V30 MDLV30/STEABS ATOMS=(1 28)
M  V30 END COLLECTION
M  V30 END CTAB
M  END
>  <Molecule ChEMBL ID>
CHEMBL360246

>  <Smiles>
C[C@]1(C(=O)O)CCc2ccc(OCCCOc3ccc(Oc4ccc(F)cc4)cc3Cl)cc2O1

>  <IC50_nM>
900

>  <Assay Description>
In vitro binding affinity against human PPARgamma

$$$$
CHEMBL445151
Actelion Java MolfileCreator 2.0

  0  0  0  0  0  0              0 V3000
M  V30 BEGIN CTAB
M  V30 COUNTS 35 39 0 0 0
M  V30 BEGIN ATOM
M  V30 1 O 8.6602 -4.5 0.0 0
M  V30 2 C 8.6602 -3.5 0.0 0
M  V30 3 N 9.5262 -3.0 0.0 0
M  V30 4 N 7.7942 -3.0 0.0 0
M  V30 5 C 9.5262 -1.9999 0.0 0
M  V30 6 C 7.7942 -2.0 0.0 0 CFG=2
M  V30 7 C 8.6602 -1.5 0.0 0
M  V30 8 C 10.3923 -1.4999 0.0 0
M  V30 9 C 6.9282 -1.5 0.0 0
M  V30 10 C 8.6602 -0.5 0.0 0
M  V30 11 C 6.9282 -0.5 0.0 0
M  V30 12 C 6.0621 -2.0 0.0 0
M  V30 13 O 9.5262 0.0 0.0 0
M  V30 14 O 7.7942 0.0 0.0 0
M  V30 15 C 6.0621 0.0 0.0 0
M  V30 16 C 5.1961 -1.5 0.0 0
M  V30 17 C 5.1961 -0.5 0.0 0
M  V30 18 O 4.3301 0.0 0.0 0
M  V30 19 C 3.4641 -0.5 0.0 0
M  V30 20 C 2.598 0.0 0.0 0
M  V30 21 C 1.732 -0.5 0.0 0
M  V30 22 O 0.866 0.0 0.0 0
M  V30 23 C 0.0 -0.5 0.0 0
M  V30 24 C 0.0 -1.5 0.0 0
M  V30 25 C -0.866 0.0 0.0 0
M  V30 26 C -0.866 -1.9999 0.0 0
M  V30 27 C 0.7431 -2.1691 0.0 0
M  V30 28 C -1.732 -0.4999 0.0 0
M  V30 29 N -0.6581 -2.9781 0.0 0
M  V30 30 C -1.732 -1.4999 0.0 0
M  V30 31 C 0.3364 -3.0826 0.0 0
M  V30 32 C 1.7376 -2.0646 0.0 0
M  V30 33 C 0.9241 -3.8916 0.0 0
M  V30 34 C 2.3254 -2.8736 0.0 0
M  V30 35 C 1.9187 -3.7871 0.0 0
M  V30 END ATOM
M  V30 BEGIN BOND
M  V30 1 2 1 2
M  V30 2 1 2 3
M  V30 3 1 2 4
M  V30 4 1 3 5
M  V30 5 1 4 6
M  V30 6 2 5 7
M  V30 7 1 5 8
M  V30 8 1 6 9 CFG=1
M  V30 9 1 7 10
M  V30 10 2 9 11
M  V30 11 1 9 12
M  V30 12 2 10 13
M  V30 13 1 10 14
M  V30 14 1 11 15
M  V30 15 2 12 16
M  V30 16 2 15 17
M  V30 17 1 17 18
M  V30 18 1 18 19
M  V30 19 1 19 20
M  V30 20 1 20 21
M  V30 21 1 21 22
M  V30 22 1 22 23
M  V30 23 2 23 24
M  V30 24 1 23 25
M  V30 25 1 24 26
M  V30 26 1 24 27
M  V30 27 2 25 28
M  V30 28 1 26 29
M  V30 29 2 26 30
M  V30 30 2 27 31
M  V30 31 1 27 32
M  V30 32 1 31 33
M  V30 33 2 32 34
M  V30 34 2 33 35
M  V30 35 1 6 7
M  V30 36 1 16 17
M  V30 37 1 28 30
M  V30 38 1 29 31
M  V30 39 1 34 35
M  V30 END BOND
M  V30 BEGIN COLLECTION
M  V30 MDLV30/STERAC1 ATOMS=(1 6)
M  V30 END COLLECTION
M  V30 END CTAB
M  END
>  <Molecule ChEMBL ID>
CHEMBL445151

>  <Smiles>
CC1=C(C(=O)O)C(c2ccc(OCCCOc3cccc4[nH]c5ccccc5c34)cc2)NC(=O)N1

>  <IC50_nM>
900

>  <Assay Description>
Displacement of [3H]rosiglitazone from PPAR gamma

$$$$
CHEMBL2031952
Actelion Java MolfileCreator 2.0

  0  0  0  0  0  0              0 V3000
M  V30 BEGIN CTAB
M  V30 COUNTS 28 29 0 0 0
M  V30 BEGIN ATOM
M  V30 1 F 16.8874 -9.0 0.0 0
M  V30 2 C 16.8874 -7.5 0.0 0
M  V30 3 C 18.1865 -6.75 0.0 0
M  V30 4 C 15.5884 -6.75 0.0 0
M  V30 5 C 18.1865 -5.2499 0.0 0
M  V30 6 C 15.5884 -5.25 0.0 0
M  V30 7 F 19.4855 -4.4999 0.0 0
M  V30 8 C 16.8874 -4.5 0.0 0
M  V30 9 C 14.2894 -4.5 0.0 0
M  V30 10 C 14.2894 -3.0 0.0 0
M  V30 11 C 12.9903 -2.25 0.0 0
M  V30 12 C 12.9903 -0.75 0.0 0
M  V30 13 C 11.6913 -3.0 0.0 0
M  V30 14 C 11.6913 0.0 0.0 0
M  V30 15 C 10.3923 -2.25 0.0 0
M  V30 16 O 11.6913 1.4999 0.0 0
M  V30 17 C 10.3923 -0.75 0.0 0
M  V30 18 O 9.0932 -2.9999 0.0 0
M  V30 19 C 9.0932 0.0 0.0 0
M  V30 20 C 7.7942 -0.75 0.0 0
M  V30 21 C 6.4951 0.0 0.0 0
M  V30 22 C 5.1961 -0.75 0.0 0
M  V30 23 C 6.4951 1.5 0.0 0
M  V30 24 C 3.8971 0.0 0.0 0
M  V30 25 C 2.598 -0.75 0.0 0
M  V30 26 C 1.299 0.0 0.0 0
M  V30 27 C 1.299 1.5 0.0 0
M  V30 28 C 0.0 -0.75 0.0 0
M  V30 END ATOM
M  V30 BEGIN BOND
M  V30 1 1 1 2
M  V30 2 2 2 3
M  V30 3 1 2 4
M  V30 4 1 3 5
M  V30 5 2 4 6
M  V30 6 1 5 7
M  V30 7 2 5 8
M  V30 8 1 6 9
M  V30 9 2 9 10
M  V30 10 1 10 11
M  V30 11 2 11 12
M  V30 12 1 11 13
M  V30 13 1 12 14
M  V30 14 2 13 15
M  V30 15 1 14 16
M  V30 16 2 14 17
M  V30 17 1 15 18
M  V30 18 1 17 19
M  V30 19 1 19 20
M  V30 20 2 20 21
M  V30 21 1 21 22
M  V30 22 1 21 23
M  V30 23 1 22 24
M  V30 24 1 24 25
M  V30 25 2 25 26
M  V30 26 1 26 27
M  V30 27 1 26 28
M  V30 28 1 6 8
M  V30 29 1 15 17
M  V30 END BOND
M  V30 END CTAB
M  END
>  <Molecule ChEMBL ID>
CHEMBL2031952

>  <Smiles>
CC(C)=CCC/C(C)=C/Cc1c(O)cc(/C=C/c2cc(F)cc(F)c2)cc1O

>  <IC50_nM>
900

>  <Assay Description>
Binding affinity to GST-tagged human PPARgamma by TR-FRET analysis

$$$$
CHEMBL228388
Actelion Java MolfileCreator 2.0

  0  0  0  0  0  0              0 V3000
M  V30 BEGIN CTAB
M  V30 COUNTS 33 37 0 0 0
M  V30 BEGIN ATOM
M  V30 1 O 6.9282 -4.4999 0.0 0
M  V30 2 C 6.9282 -3.4999 0.0 0
M  V30 3 N 7.7942 -3.0 0.0 0
M  V30 4 N 6.0621 -2.9999 0.0 0
M  V30 5 C 7.7942 -1.9999 0.0 0
M  V30 6 C 6.0621 -2.0 0.0 0 CFG=2
M  V30 7 C 6.9282 -1.4999 0.0 0
M  V30 8 C 8.6602 -1.4999 0.0 0
M  V30 9 C 5.1961 -1.4999 0.0 0
M  V30 10 C 6.9282 -0.4999 0.0 0
M  V30 11 C 5.1961 -0.5 0.0 0
M  V30 12 C 4.3301 -1.9999 0.0 0
M  V30 13 O 7.7942 0.0 0.0 0
M  V30 14 O 6.0621 0.0 0.0 0
M  V30 15 C 4.3301 0.0 0.0 0
M  V30 16 C 3.4641 -1.5 0.0 0
M  V30 17 C 3.4641 -0.5 0.0 0
M  V30 18 O 2.598 0.0 0.0 0
M  V30 19 C 1.732 -0.5 0.0 0
M  V30 20 C 0.866 0.0 0.0 0
M  V30 21 N 0.0 -0.5 0.0 0
M  V30 22 C -0.9135 -0.0932 0.0 0
M  V30 23 C -0.1045 -1.4945 0.0 0
M  V30 24 C -1.5826 -0.8364 0.0 0
M  V30 25 C -1.2225 0.8577 0.0 0
M  V30 26 C -1.0826 -1.7024 0.0 0
M  V30 27 C 0.5646 -2.2376 0.0 0
M  V30 28 C -2.5608 -0.6284 0.0 0
M  V30 29 C -2.2007 1.0657 0.0 0
M  V30 30 C -1.3916 -2.6534 0.0 0
M  V30 31 C 0.2555 -3.1887 0.0 0
M  V30 32 C -2.8698 0.3225 0.0 0
M  V30 33 C -0.7225 -3.3966 0.0 0
M  V30 END ATOM
M  V30 BEGIN BOND
M  V30 1 2 1 2
M  V30 2 1 2 3
M  V30 3 1 2 4
M  V30 4 1 3 5
M  V30 5 1 4 6
M  V30 6 2 5 7
M  V30 7 1 5 8
M  V30 8 1 6 9 CFG=1
M  V30 9 1 7 10
M  V30 10 2 9 11
M  V30 11 1 9 12
M  V30 12 2 10 13
M  V30 13 1 10 14
M  V30 14 1 11 15
M  V30 15 2 12 16
M  V30 16 2 15 17
M  V30 17 1 17 18
M  V30 18 1 18 19
M  V30 19 1 19 20
M  V30 20 1 20 21
M  V30 21 1 21 22
M  V30 22 1 21 23
M  V30 23 2 22 24
M  V30 24 1 22 25
M  V30 25 2 23 26
M  V30 26 1 23 27
M  V30 27 1 24 28
M  V30 28 2 25 29
M  V30 29 1 26 30
M  V30 30 2 27 31
M  V30 31 2 28 32
M  V30 32 2 30 33
M  V30 33 1 6 7
M  V30 34 1 16 17
M  V30 35 1 24 26
M  V30 36 1 29 32
M  V30 37 1 31 33
M  V30 END BOND
M  V30 BEGIN COLLECTION
M  V30 MDLV30/STERAC1 ATOMS=(1 6)
M  V30 END COLLECTION
M  V30 END CTAB
M  END
>  <Molecule ChEMBL ID>
CHEMBL228388

>  <Smiles>
CC1=C(C(=O)O)C(c2ccc(OCCn3c4ccccc4c4ccccc43)cc2)NC(=O)N1

>  <IC50_nM>
900

>  <Assay Description>
Displacement of [3H]rosiglitazone from PPAR gamma

$$$$
CHEMBL3398430
Actelion Java MolfileCreator 2.0

  0  0  0  0  0  0              0 V3000
M  V30 BEGIN CTAB
M  V30 COUNTS 35 38 0 0 0
M  V30 BEGIN ATOM
M  V30 1 O 3.4641 -0.5 0.0 0
M  V30 2 C 2.598 0.0 0.0 0
M  V30 3 O 1.732 -0.5 0.0 0
M  V30 4 N 2.598 1.0 0.0 0
M  V30 5 C 0.866 0.0 0.0 0
M  V30 6 C 3.407 1.5877 0.0 0
M  V30 7 C 1.789 1.5877 0.0 0
M  V30 8 C 0.0 -0.5 0.0 0
M  V30 9 C 3.098 2.5388 0.0 0 CFG=2
M  V30 10 C 2.098 2.5388 0.0 0 CFG=1
M  V30 11 C 3.6858 3.3478 0.0 0
M  V30 12 C 1.5102 3.3478 0.0 0
M  V30 13 C 4.6803 3.2433 0.0 0
M  V30 14 C 3.2791 4.2614 0.0 0
M  V30 15 C 0.5157 3.2433 0.0 0
M  V30 16 C 5.2681 4.0523 0.0 0
M  V30 17 C 3.8669 5.0704 0.0 0
M  V30 18 O 0.109 2.3297 0.0 0
M  V30 19 O -0.072 4.0523 0.0 0
M  V30 20 O 6.2626 3.9478 0.0 0
M  V30 21 C 4.8614 4.9658 0.0 0
M  V30 22 C 6.8504 4.7568 0.0 0
M  V30 23 C 7.8449 4.6523 0.0 0
M  V30 24 C 8.4327 5.4613 0.0 0
M  V30 25 N 9.4327 5.4613 0.0 0
M  V30 26 C 8.1237 6.4123 0.0 0
M  V30 27 C 9.7417 6.4123 0.0 0
M  V30 28 O 8.9327 7.0001 0.0 0
M  V30 29 C 7.1727 6.7213 0.0 0
M  V30 30 C 10.6928 6.7213 0.0 0
M  V30 31 C 11.436 6.0522 0.0 0
M  V30 32 C 10.9007 7.6995 0.0 0
M  V30 33 C 12.387 6.3612 0.0 0
M  V30 34 C 11.8518 8.0085 0.0 0
M  V30 35 C 12.5949 7.3394 0.0 0
M  V30 END ATOM
M  V30 BEGIN BOND
M  V30 1 2 1 2
M  V30 2 1 2 3
M  V30 3 1 2 4
M  V30 4 1 3 5
M  V30 5 1 4 6
M  V30 6 1 4 7
M  V30 7 1 5 8
M  V30 8 1 6 9
M  V30 9 1 7 10
M  V30 10 1 9 11 CFG=3
M  V30 11 1 10 12 CFG=3
M  V30 12 2 11 13
M  V30 13 1 11 14
M  V30 14 1 12 15
M  V30 15 1 13 16
M  V30 16 2 14 17
M  V30 17 2 15 18
M  V30 18 1 15 19
M  V30 19 1 16 20
M  V30 20 2 16 21
M  V30 21 1 20 22
M  V30 22 1 22 23
M  V30 23 1 23 24
M  V30 24 1 24 25
M  V30 25 2 24 26
M  V30 26 2 25 27
M  V30 27 1 26 28
M  V30 28 1 26 29
M  V30 29 1 27 30
M  V30 30 2 30 31
M  V30 31 1 30 32
M  V30 32 1 31 33
M  V30 33 2 32 34
M  V30 34 2 33 35
M  V30 35 1 9 10
M  V30 36 1 17 21
M  V30 37 1 27 28
M  V30 38 1 34 35
M  V30 END BOND
M  V30 BEGIN COLLECTION
M  V30 MDLV30/STEABS ATOMS=(2 9 10)
M  V30 END COLLECTION
M  V30 END CTAB
M  END
>  <Molecule ChEMBL ID>
CHEMBL3398430

>  <Smiles>
CCOC(=O)N1C[C@H](CC(=O)O)[C@H](c2cccc(OCCc3nc(-c4ccccc4)oc3C)c2)C1

>  <IC50_nM>
910

>  <Assay Description>
Binding affinity to PPARgamma (unknown origin) using fluorescein-tagged dual PPARalpha/gamma activator by homogeneous fluorescence polarization binding assay

$$$$
CHEMBL360762
Actelion Java MolfileCreator 2.0

  0  0  0  0  0  0              0 V3000
M  V30 BEGIN CTAB
M  V30 COUNTS 35 38 0 0 0
M  V30 BEGIN ATOM
M  V30 1 Cl 1.4944 -7.3946 0.0 0
M  V30 2 C 2.9862 -7.5514 0.0 0
M  V30 3 C 3.5963 -8.9217 0.0 0
M  V30 4 C 3.8679 -6.3378 0.0 0
M  V30 5 C 5.0881 -9.0785 0.0 0
M  V30 6 C 5.3597 -6.4946 0.0 0
M  V30 7 C 5.9698 -7.865 0.0 0
M  V30 8 C 7.4615 -8.0217 0.0 0
M  V30 9 O 8.0717 -9.3921 0.0 0
M  V30 10 N 8.3432 -6.8082 0.0 0
M  V30 11 C 9.8432 -6.8082 0.0 0
M  V30 12 C 7.8797 -5.3816 0.0 0
M  V30 13 C 10.3068 -5.3816 0.0 0
M  V30 14 C 10.8469 -7.9229 0.0 0
M  V30 15 C 9.0932 -4.5 0.0 0
M  V30 16 C 6.4531 -4.9181 0.0 0
M  V30 17 C 11.774 -5.0698 0.0 0
M  V30 18 C 12.3141 -7.6111 0.0 0
M  V30 19 C 9.0932 -3.0 0.0 0
M  V30 20 C 12.7777 -6.1845 0.0 0
M  V30 21 C 7.7942 -2.25 0.0 0
M  V30 22 O 14.2449 -5.8726 0.0 0
M  V30 23 C 7.7942 -0.75 0.0 0
M  V30 24 C 6.4951 -3.0 0.0 0
M  V30 25 C 14.7084 -4.446 0.0 0
M  V30 26 C 6.4951 0.0 0.0 0
M  V30 27 C 5.1961 -2.25 0.0 0
M  V30 28 C 5.1961 -0.75 0.0 0
M  V30 29 O 3.8971 0.0 0.0 0
M  V30 30 C 2.598 -0.75 0.0 0
M  V30 31 C 1.299 0.0 0.0 0
M  V30 32 C 1.848 -2.049 0.0 0
M  V30 33 C 3.348 -2.049 0.0 0
M  V30 34 O 1.299 1.5 0.0 0
M  V30 35 O 0.0 -0.75 0.0 0
M  V30 END ATOM
M  V30 BEGIN BOND
M  V30 1 1 1 2
M  V30 2 2 2 3
M  V30 3 1 2 4
M  V30 4 1 3 5
M  V30 5 2 4 6
M  V30 6 2 5 7
M  V30 7 1 7 8
M  V30 8 2 8 9
M  V30 9 1 8 10
M  V30 10 1 10 11
M  V30 11 1 10 12
M  V30 12 2 11 13
M  V30 13 1 11 14
M  V30 14 2 12 15
M  V30 15 1 12 16
M  V30 16 1 13 17
M  V30 17 2 14 18
M  V30 18 1 15 19
M  V30 19 2 17 20
M  V30 20 1 19 21
M  V30 21 1 20 22
M  V30 22 2 21 23
M  V30 23 1 21 24
M  V30 24 1 22 25
M  V30 25 1 23 26
M  V30 26 2 24 27
M  V30 27 2 26 28
M  V30 28 1 28 29
M  V30 29 1 29 30
M  V30 30 1 30 31
M  V30 31 1 30 32
M  V30 32 1 30 33
M  V30 33 2 31 34
M  V30 34 1 31 35
M  V30 35 1 6 7
M  V30 36 1 13 15
M  V30 37 1 18 20
M  V30 38 1 27 28
M  V30 END BOND
M  V30 END CTAB
M  END
>  <Molecule ChEMBL ID>
CHEMBL360762

>  <Smiles>
COc1ccc2c(c1)c(Cc1ccc(OC(C)(C)C(=O)O)cc1)c(C)n2C(=O)c1ccc(Cl)cc1

>  <IC50_nM>
914

>  <Assay Description>
In vitro inhibition of human Peroxisome proliferator activated receptor gamma

$$$$
CHEMBL519802
Actelion Java MolfileCreator 2.0

  0  0  0  0  0  0              0 V3000
M  V30 BEGIN CTAB
M  V30 COUNTS 33 36 0 0 0
M  V30 BEGIN ATOM
M  V30 1 S 4.1222 -2.9781 0.0 0
M  V30 2 C 4.3301 -2.0 0.0 0
M  V30 3 C 3.1276 -3.0826 0.0 0
M  V30 4 C 5.1961 -1.4999 0.0 0
M  V30 5 C 3.4641 -1.5 0.0 0
M  V30 6 C 2.7209 -2.1691 0.0 0
M  V30 7 C 5.1961 -0.4999 0.0 0
M  V30 8 C 6.0621 -1.9999 0.0 0
M  V30 9 C 3.4641 -0.5 0.0 0
M  V30 10 C 4.3301 0.0 0.0 0
M  V30 11 C 6.9282 -1.5 0.0 0 CFG=2
M  V30 12 O 2.598 0.0 0.0 0
M  V30 13 O 6.9282 -0.5 0.0 0
M  V30 14 C 7.7942 -2.0 0.0 0
M  V30 15 C 1.732 -0.5 0.0 0
M  V30 16 C 6.0621 0.0 0.0 0
M  V30 17 O 7.7942 -3.0 0.0 0
M  V30 18 O 8.6602 -1.5 0.0 0
M  V30 19 C 0.866 0.0 0.0 0
M  V30 20 C 0.0 -0.5 0.0 0
M  V30 21 N -0.9135 -0.0932 0.0 0
M  V30 22 C -0.1045 -1.4945 0.0 0
M  V30 23 C -1.5826 -0.8364 0.0 0
M  V30 24 O -1.0826 -1.7024 0.0 0
M  V30 25 C 0.6386 -2.1636 0.0 0
M  V30 26 C -2.5771 -0.7318 0.0 0
M  V30 27 C -2.9839 0.1816 0.0 0
M  V30 28 C -3.1649 -1.5408 0.0 0
M  V30 29 O -2.3961 0.9906 0.0 0
M  V30 30 C -3.9784 0.2861 0.0 0
M  V30 31 C -4.1595 -1.4363 0.0 0
M  V30 32 C -2.8028 1.9042 0.0 0
M  V30 33 C -4.5662 -0.5228 0.0 0
M  V30 END ATOM
M  V30 BEGIN BOND
M  V30 1 1 1 2
M  V30 2 1 1 3
M  V30 3 2 2 4
M  V30 4 1 2 5
M  V30 5 2 3 6
M  V30 6 1 4 7
M  V30 7 1 4 8
M  V30 8 2 5 9
M  V30 9 2 7 10
M  V30 10 1 8 11
M  V30 11 1 9 12
M  V30 12 1 11 13 CFG=3
M  V30 13 1 11 14
M  V30 14 1 12 15
M  V30 15 1 13 16
M  V30 16 2 14 17
M  V30 17 1 14 18
M  V30 18 1 15 19
M  V30 19 1 19 20
M  V30 20 1 20 21
M  V30 21 2 20 22
M  V30 22 2 21 23
M  V30 23 1 22 24
M  V30 24 1 22 25
M  V30 25 1 23 26
M  V30 26 2 26 27
M  V30 27 1 26 28
M  V30 28 1 27 29
M  V30 29 1 27 30
M  V30 30 2 28 31
M  V30 31 1 29 32
M  V30 32 2 30 33
M  V30 33 1 5 6
M  V30 34 1 9 10
M  V30 35 1 23 24
M  V30 36 1 31 33
M  V30 END BOND
M  V30 BEGIN COLLECTION
M  V30 MDLV30/STERAC1 ATOMS=(1 11)
M  V30 END COLLECTION
M  V30 END CTAB
M  END
>  <Molecule ChEMBL ID>
CHEMBL519802

>  <Smiles>
COc1ccccc1-c1nc(CCOc2ccc(CC(OC)C(=O)O)c3sccc23)c(C)o1

>  <IC50_nM>
916

>  <Assay Description>
Displacement of radio labeled 2(S)-(2-benzoyl-phenylamino)-3-{4-[1,1-ditritio-2-(5-methyl-2-phenyl-oxazol-4-yl)-ethoxy]-phenyl}-propionic acid from GST-fused human PPARgamma expressed in Escherichia coli BL21 cells by scintillation proximity assay

$$$$
CHEMBL1946954
Actelion Java MolfileCreator 2.0

  0  0  0  0  0  0              0 V3000
M  V30 BEGIN CTAB
M  V30 COUNTS 38 42 0 0 0
M  V30 BEGIN ATOM
M  V30 1 F 8.4868 2.3257 0.0 0
M  V30 2 C 9.4379 2.0167 0.0 0
M  V30 3 F 9.7469 2.9678 0.0 0
M  V30 4 F 10.3889 1.7077 0.0 0
M  V30 5 C 9.1289 1.0657 0.0 0
M  V30 6 C 8.1507 0.8577 0.0 0
M  V30 7 C 9.798 0.3225 0.0 0
M  V30 8 C 7.8417 -0.0932 0.0 0
M  V30 9 C 9.489 -0.6284 0.0 0
M  V30 10 N 6.9282 -0.5 0.0 0
M  V30 11 C 8.5108 -0.8364 0.0 0
M  V30 12 C 7.0327 -1.4945 0.0 0
M  V30 13 C 6.0621 0.0 0.0 0
M  V30 14 N 8.0108 -1.7024 0.0 0
M  V30 15 O 6.2895 -2.1636 0.0 0
M  V30 16 C 5.1961 -0.5 0.0 0
M  V30 17 C 8.4176 -2.6159 0.0 0
M  V30 18 C 4.3301 0.0 0.0 0
M  V30 19 C 5.1961 -1.4999 0.0 0
M  V30 20 N 7.9176 -3.482 0.0 0
M  V30 21 C 9.3957 -2.8238 0.0 0
M  V30 22 C 3.4641 -0.5 0.0 0
M  V30 23 C 4.3301 -1.9999 0.0 0
M  V30 24 O 8.5867 -4.2251 0.0 0
M  V30 25 C 9.5002 -3.8184 0.0 0
M  V30 26 C 10.2047 -2.2361 0.0 0
M  V30 27 O 2.598 0.0 0.0 0
M  V30 28 C 3.4641 -1.4999 0.0 0
M  V30 29 C 10.4138 -4.2251 0.0 0
M  V30 30 C 11.1183 -2.6428 0.0 0
M  V30 31 C 1.732 -0.5 0.0 0 CFG=1
M  V30 32 C 11.2228 -3.6373 0.0 0
M  V30 33 C 0.866 0.0 0.0 0
M  V30 34 C 1.732 -1.5 0.0 0
M  V30 35 O 12.1363 -4.0441 0.0 0
M  V30 36 O 0.866 1.0 0.0 0
M  V30 37 O 0.0 -0.5 0.0 0
M  V30 38 C 12.9454 -3.4563 0.0 0
M  V30 END ATOM
M  V30 BEGIN BOND
M  V30 1 1 1 2
M  V30 2 1 2 3
M  V30 3 1 2 4
M  V30 4 1 2 5
M  V30 5 2 5 6
M  V30 6 1 5 7
M  V30 7 1 6 8
M  V30 8 2 7 9
M  V30 9 1 8 10
M  V30 10 2 8 11
M  V30 11 1 10 12
M  V30 12 1 10 13
M  V30 13 1 11 14
M  V30 14 2 12 15
M  V30 15 1 13 16
M  V30 16 1 14 17
M  V30 17 2 16 18
M  V30 18 1 16 19
M  V30 19 2 17 20
M  V30 20 1 17 21
M  V30 21 1 18 22
M  V30 22 2 19 23
M  V30 23 1 20 24
M  V30 24 2 21 25
M  V30 25 1 21 26
M  V30 26 1 22 27
M  V30 27 2 22 28
M  V30 28 1 25 29
M  V30 29 2 26 30
M  V30 30 1 27 31
M  V30 31 2 29 32
M  V30 32 1 31 33
M  V30 33 1 31 34 CFG=3
M  V30 34 1 32 35
M  V30 35 2 33 36
M  V30 36 1 33 37
M  V30 37 1 35 38
M  V30 38 1 9 11
M  V30 39 1 12 14
M  V30 40 1 23 28
M  V30 41 1 24 25
M  V30 42 1 30 32
M  V30 END BOND
M  V30 BEGIN COLLECTION
M  V30 MDLV30/STEABS ATOMS=(1 31)
M  V30 END COLLECTION
M  V30 END CTAB
M  END
>  <Molecule ChEMBL ID>
CHEMBL1946954

>  <Smiles>
COc1ccc2c(-n3c(=O)n(Cc4cccc(O[C@H](C)C(=O)O)c4)c4cc(C(F)(F)F)ccc43)noc2c1

>  <IC50_nM>
924

>  <Assay Description>
Binding affinity to human PPARgamma by scintillation proximity assay

$$$$
CHEMBL396550
Actelion Java MolfileCreator 2.0

  0  0  0  0  0  0              0 V3000
M  V30 BEGIN CTAB
M  V30 COUNTS 36 39 0 0 0
M  V30 BEGIN ATOM
M  V30 1 Cl 10.3923 -0.5 0.0 0
M  V30 2 C 9.5262 0.0 0.0 0
M  V30 3 C 9.5262 0.9999 0.0 0
M  V30 4 C 8.6602 -0.5 0.0 0
M  V30 5 C 8.6602 1.4999 0.0 0
M  V30 6 C 7.7942 0.0 0.0 0
M  V30 7 C 7.7942 0.9999 0.0 0
M  V30 8 C 6.9282 1.4999 0.0 0
M  V30 9 O 6.9282 2.4999 0.0 0
M  V30 10 C 6.0621 0.9999 0.0 0
M  V30 11 C 5.1961 1.4999 0.0 0
M  V30 12 C 6.0621 0.0 0.0 0
M  V30 13 C 4.3301 0.9999 0.0 0
M  V30 14 C 5.1961 -0.5 0.0 0
M  V30 15 C 4.3301 0.0 0.0 0
M  V30 16 O 3.4641 -0.5 0.0 0
M  V30 17 C 2.598 0.0 0.0 0
M  V30 18 C 1.732 -0.5 0.0 0
M  V30 19 O 0.866 0.0 0.0 0
M  V30 20 C 0.0 -0.5 0.0 0
M  V30 21 C -0.866 0.0 0.0 0
M  V30 22 C 0.0 -1.4999 0.0 0
M  V30 23 C -1.732 -0.4999 0.0 0
M  V30 24 C -0.866 -1.9999 0.0 0
M  V30 25 C -1.732 -1.4999 0.0 0
M  V30 26 C -2.598 -1.9999 0.0 0 CFG=2
M  V30 27 N -3.4641 -1.4999 0.0 0
M  V30 28 C -2.598 -2.9999 0.0 0
M  V30 29 C -4.3301 -1.9999 0.0 0
M  V30 30 C -3.4641 -3.4999 0.0 0
M  V30 31 C -1.732 -3.4999 0.0 0
M  V30 32 O -5.1961 -1.4999 0.0 0
M  V30 33 N -4.3301 -2.9999 0.0 0
M  V30 34 C -3.4641 -4.4999 0.0 0
M  V30 35 O -1.732 -4.4999 0.0 0
M  V30 36 O -0.866 -2.9999 0.0 0
M  V30 END ATOM
M  V30 BEGIN BOND
M  V30 1 1 1 2
M  V30 2 2 2 3
M  V30 3 1 2 4
M  V30 4 1 3 5
M  V30 5 2 4 6
M  V30 6 2 5 7
M  V30 7 1 7 8
M  V30 8 2 8 9
M  V30 9 1 8 10
M  V30 10 2 10 11
M  V30 11 1 10 12
M  V30 12 1 11 13
M  V30 13 2 12 14
M  V30 14 2 13 15
M  V30 15 1 15 16
M  V30 16 1 16 17
M  V30 17 1 17 18
M  V30 18 1 18 19
M  V30 19 1 19 20
M  V30 20 2 20 21
M  V30 21 1 20 22
M  V30 22 1 21 23
M  V30 23 2 22 24
M  V30 24 2 23 25
M  V30 25 1 26 25 CFG=1
M  V30 26 1 26 27
M  V30 27 1 26 28
M  V30 28 1 27 29
M  V30 29 2 28 30
M  V30 30 1 28 31
M  V30 31 2 29 32
M  V30 32 1 29 33
M  V30 33 1 30 34
M  V30 34 2 31 35
M  V30 35 1 31 36
M  V30 36 1 6 7
M  V30 37 1 14 15
M  V30 38 1 24 25
M  V30 39 1 30 33
M  V30 END BOND
M  V30 BEGIN COLLECTION
M  V30 MDLV30/STERAC1 ATOMS=(1 26)
M  V30 END COLLECTION
M  V30 END CTAB
M  END
>  <Molecule ChEMBL ID>
CHEMBL396550

>  <Smiles>
CC1=C(C(=O)O)C(c2ccc(OCCOc3ccc(C(=O)c4ccc(Cl)cc4)cc3)cc2)NC(=O)N1

>  <IC50_nM>
930

>  <Assay Description>
Displacement of [3H]rosiglitazone from PPAR gamma

$$$$
CHEMBL391264
Actelion Java MolfileCreator 2.0

  0  0  0  0  0  0              0 V3000
M  V30 BEGIN CTAB
M  V30 COUNTS 31 33 0 0 0
M  V30 BEGIN ATOM
M  V30 1 O 8.6602 -4.5 0.0 0
M  V30 2 C 8.6602 -3.5 0.0 0
M  V30 3 O 9.5262 -3.0 0.0 0
M  V30 4 C 7.7942 -3.0 0.0 0
M  V30 5 C 7.7942 -2.0 0.0 0
M  V30 6 C 6.9282 -1.5 0.0 0
M  V30 7 C 6.9282 -0.5 0.0 0
M  V30 8 C 6.0621 -2.0 0.0 0
M  V30 9 C 6.0621 0.0 0.0 0
M  V30 10 C 7.7942 0.0 0.0 0
M  V30 11 C 5.1961 -1.5 0.0 0
M  V30 12 C 5.1961 -0.5 0.0 0
M  V30 13 O 4.3301 0.0 0.0 0
M  V30 14 C 3.4641 -0.5 0.0 0
M  V30 15 C 2.598 0.0 0.0 0
M  V30 16 C 1.732 -0.5 0.0 0 CFG=2
M  V30 17 O 0.866 0.0 0.0 0
M  V30 18 C 1.732 -1.5 0.0 0
M  V30 19 C 0.0 -0.5 0.0 0
M  V30 20 C -0.866 0.0 0.0 0
M  V30 21 C 0.0 -1.4999 0.0 0
M  V30 22 C -0.866 1.0 0.0 0
M  V30 23 C -1.732 -0.4999 0.0 0
M  V30 24 C -0.866 -1.9999 0.0 0
M  V30 25 O -0.057 1.5877 0.0 0
M  V30 26 C -1.675 1.5877 0.0 0
M  V30 27 C -1.732 -1.4999 0.0 0
M  V30 28 C -0.366 2.5388 0.0 0
M  V30 29 C -1.366 2.5388 0.0 0
M  V30 30 C -2.598 -1.9999 0.0 0
M  V30 31 C -2.598 -2.9999 0.0 0
M  V30 END ATOM
M  V30 BEGIN BOND
M  V30 1 2 1 2
M  V30 2 1 2 3
M  V30 3 1 2 4
M  V30 4 1 4 5
M  V30 5 1 5 6
M  V30 6 2 6 7
M  V30 7 1 6 8
M  V30 8 1 7 9
M  V30 9 1 7 10
M  V30 10 2 8 11
M  V30 11 2 9 12
M  V30 12 1 12 13
M  V30 13 1 13 14
M  V30 14 1 14 15
M  V30 15 1 15 16
M  V30 16 1 16 17
M  V30 17 1 16 18 CFG=1
M  V30 18 1 17 19
M  V30 19 2 19 20
M  V30 20 1 19 21
M  V30 21 1 20 22
M  V30 22 1 20 23
M  V30 23 2 21 24
M  V30 24 1 22 25
M  V30 25 2 22 26
M  V30 26 2 23 27
M  V30 27 1 25 28
M  V30 28 1 26 29
M  V30 29 1 27 30
M  V30 30 1 30 31
M  V30 31 1 11 12
M  V30 32 1 24 27
M  V30 33 2 28 29
M  V30 END BOND
M  V30 BEGIN COLLECTION
M  V30 MDLV30/STEABS ATOMS=(1 16)
M  V30 END COLLECTION
M  V30 END CTAB
M  END
>  <Molecule ChEMBL ID>
CHEMBL391264

>  <Smiles>
CCc1ccc(O[C@H](C)CCOc2ccc(CCC(=O)O)c(C)c2)c(-c2ccco2)c1

>  <IC50_nM>
939.72

>  <Assay Description>
Agonist activity at PPARgamma

$$$$
CHEMBL391264
Actelion Java MolfileCreator 2.0

  0  0  0  0  0  0              0 V3000
M  V30 BEGIN CTAB
M  V30 COUNTS 31 33 0 0 0
M  V30 BEGIN ATOM
M  V30 1 O 8.6602 -4.5 0.0 0
M  V30 2 C 8.6602 -3.5 0.0 0
M  V30 3 O 9.5262 -3.0 0.0 0
M  V30 4 C 7.7942 -3.0 0.0 0
M  V30 5 C 7.7942 -2.0 0.0 0
M  V30 6 C 6.9282 -1.5 0.0 0
M  V30 7 C 6.9282 -0.5 0.0 0
M  V30 8 C 6.0621 -2.0 0.0 0
M  V30 9 C 6.0621 0.0 0.0 0
M  V30 10 C 7.7942 0.0 0.0 0
M  V30 11 C 5.1961 -1.5 0.0 0
M  V30 12 C 5.1961 -0.5 0.0 0
M  V30 13 O 4.3301 0.0 0.0 0
M  V30 14 C 3.4641 -0.5 0.0 0
M  V30 15 C 2.598 0.0 0.0 0
M  V30 16 C 1.732 -0.5 0.0 0 CFG=2
M  V30 17 O 0.866 0.0 0.0 0
M  V30 18 C 1.732 -1.5 0.0 0
M  V30 19 C 0.0 -0.5 0.0 0
M  V30 20 C -0.866 0.0 0.0 0
M  V30 21 C 0.0 -1.4999 0.0 0
M  V30 22 C -0.866 1.0 0.0 0
M  V30 23 C -1.732 -0.4999 0.0 0
M  V30 24 C -0.866 -1.9999 0.0 0
M  V30 25 O -0.057 1.5877 0.0 0
M  V30 26 C -1.675 1.5877 0.0 0
M  V30 27 C -1.732 -1.4999 0.0 0
M  V30 28 C -0.366 2.5388 0.0 0
M  V30 29 C -1.366 2.5388 0.0 0
M  V30 30 C -2.598 -1.9999 0.0 0
M  V30 31 C -2.598 -2.9999 0.0 0
M  V30 END ATOM
M  V30 BEGIN BOND
M  V30 1 2 1 2
M  V30 2 1 2 3
M  V30 3 1 2 4
M  V30 4 1 4 5
M  V30 5 1 5 6
M  V30 6 2 6 7
M  V30 7 1 6 8
M  V30 8 1 7 9
M  V30 9 1 7 10
M  V30 10 2 8 11
M  V30 11 2 9 12
M  V30 12 1 12 13
M  V30 13 1 13 14
M  V30 14 1 14 15
M  V30 15 1 15 16
M  V30 16 1 16 17
M  V30 17 1 16 18 CFG=1
M  V30 18 1 17 19
M  V30 19 2 19 20
M  V30 20 1 19 21
M  V30 21 1 20 22
M  V30 22 1 20 23
M  V30 23 2 21 24
M  V30 24 1 22 25
M  V30 25 2 22 26
M  V30 26 2 23 27
M  V30 27 1 25 28
M  V30 28 1 26 29
M  V30 29 1 27 30
M  V30 30 1 30 31
M  V30 31 1 11 12
M  V30 32 1 24 27
M  V30 33 2 28 29
M  V30 END BOND
M  V30 BEGIN COLLECTION
M  V30 MDLV30/STEABS ATOMS=(1 16)
M  V30 END COLLECTION
M  V30 END CTAB
M  END
>  <Molecule ChEMBL ID>
CHEMBL391264

>  <Smiles>
CCc1ccc(O[C@H](C)CCOc2ccc(CCC(=O)O)c(C)c2)c(-c2ccco2)c1

>  <IC50_nM>
940

>  <Assay Description>
Agonist activity at PPARgamma

$$$$
CHEMBL391264
Actelion Java MolfileCreator 2.0

  0  0  0  0  0  0              0 V3000
M  V30 BEGIN CTAB
M  V30 COUNTS 31 33 0 0 0
M  V30 BEGIN ATOM
M  V30 1 O 8.6602 -4.5 0.0 0
M  V30 2 C 8.6602 -3.5 0.0 0
M  V30 3 O 9.5262 -3.0 0.0 0
M  V30 4 C 7.7942 -3.0 0.0 0
M  V30 5 C 7.7942 -2.0 0.0 0
M  V30 6 C 6.9282 -1.5 0.0 0
M  V30 7 C 6.9282 -0.5 0.0 0
M  V30 8 C 6.0621 -2.0 0.0 0
M  V30 9 C 6.0621 0.0 0.0 0
M  V30 10 C 7.7942 0.0 0.0 0
M  V30 11 C 5.1961 -1.5 0.0 0
M  V30 12 C 5.1961 -0.5 0.0 0
M  V30 13 O 4.3301 0.0 0.0 0
M  V30 14 C 3.4641 -0.5 0.0 0
M  V30 15 C 2.598 0.0 0.0 0
M  V30 16 C 1.732 -0.5 0.0 0 CFG=2
M  V30 17 O 0.866 0.0 0.0 0
M  V30 18 C 1.732 -1.5 0.0 0
M  V30 19 C 0.0 -0.5 0.0 0
M  V30 20 C -0.866 0.0 0.0 0
M  V30 21 C 0.0 -1.4999 0.0 0
M  V30 22 C -0.866 1.0 0.0 0
M  V30 23 C -1.732 -0.4999 0.0 0
M  V30 24 C -0.866 -1.9999 0.0 0
M  V30 25 O -0.057 1.5877 0.0 0
M  V30 26 C -1.675 1.5877 0.0 0
M  V30 27 C -1.732 -1.4999 0.0 0
M  V30 28 C -0.366 2.5388 0.0 0
M  V30 29 C -1.366 2.5388 0.0 0
M  V30 30 C -2.598 -1.9999 0.0 0
M  V30 31 C -2.598 -2.9999 0.0 0
M  V30 END ATOM
M  V30 BEGIN BOND
M  V30 1 2 1 2
M  V30 2 1 2 3
M  V30 3 1 2 4
M  V30 4 1 4 5
M  V30 5 1 5 6
M  V30 6 2 6 7
M  V30 7 1 6 8
M  V30 8 1 7 9
M  V30 9 1 7 10
M  V30 10 2 8 11
M  V30 11 2 9 12
M  V30 12 1 12 13
M  V30 13 1 13 14
M  V30 14 1 14 15
M  V30 15 1 15 16
M  V30 16 1 16 17
M  V30 17 1 16 18 CFG=1
M  V30 18 1 17 19
M  V30 19 2 19 20
M  V30 20 1 19 21
M  V30 21 1 20 22
M  V30 22 1 20 23
M  V30 23 2 21 24
M  V30 24 1 22 25
M  V30 25 2 22 26
M  V30 26 2 23 27
M  V30 27 1 25 28
M  V30 28 1 26 29
M  V30 29 1 27 30
M  V30 30 1 30 31
M  V30 31 1 11 12
M  V30 32 1 24 27
M  V30 33 2 28 29
M  V30 END BOND
M  V30 BEGIN COLLECTION
M  V30 MDLV30/STEABS ATOMS=(1 16)
M  V30 END COLLECTION
M  V30 END CTAB
M  END
>  <Molecule ChEMBL ID>
CHEMBL391264

>  <Smiles>
CCc1ccc(O[C@H](C)CCOc2ccc(CCC(=O)O)c(C)c2)c(-c2ccco2)c1

>  <IC50_nM>
940

>  <Assay Description>
Displacement of [3H]2-methyl-2-(4-{3-[porpyl-(5-pyridin-2yl-thiophene-2-sulfonyl)-amino]-propyl}-phenoxy)-propionic acid from human PPARgamma

$$$$
CHEMBL230670
Actelion Java MolfileCreator 2.0

  0  0  0  0  0  0              0 V3000
M  V30 BEGIN CTAB
M  V30 COUNTS 34 37 0 0 0
M  V30 BEGIN ATOM
M  V30 1 O 9.5262 1.0 0.0 0
M  V30 2 C 8.6602 1.5 0.0 0
M  V30 3 N 8.6602 2.5 0.0 0
M  V30 4 N 7.7942 1.0 0.0 0
M  V30 5 C 7.7942 2.9999 0.0 0
M  V30 6 C 6.9282 1.4999 0.0 0 CFG=2
M  V30 7 C 6.9282 2.4999 0.0 0
M  V30 8 C 7.7942 4.0 0.0 0
M  V30 9 C 6.0621 0.9999 0.0 0
M  V30 10 C 6.0621 2.9999 0.0 0
M  V30 11 C 5.1961 1.4999 0.0 0
M  V30 12 C 6.0621 0.0 0.0 0
M  V30 13 O 6.0621 3.9999 0.0 0
M  V30 14 O 5.1961 2.4999 0.0 0
M  V30 15 C 4.3301 1.0 0.0 0
M  V30 16 C 5.1961 -0.5 0.0 0
M  V30 17 O 3.4641 1.4999 0.0 0
M  V30 18 C 4.3301 0.0 0.0 0
M  V30 19 C 2.598 1.0 0.0 0
M  V30 20 O 3.4641 -0.5 0.0 0
M  V30 21 C 2.598 0.0 0.0 0
M  V30 22 C 1.732 -0.5 0.0 0
M  V30 23 O 0.866 0.0 0.0 0
M  V30 24 C 0.0 -0.5 0.0 0
M  V30 25 C -0.866 0.0 0.0 0
M  V30 26 C 0.0 -1.4999 0.0 0
M  V30 27 C -1.732 -0.4999 0.0 0
M  V30 28 C -0.866 1.0 0.0 0
M  V30 29 C -0.866 -1.9999 0.0 0
M  V30 30 N -1.732 -1.4999 0.0 0
M  V30 31 C -2.598 0.0 0.0 0
M  V30 32 C -1.732 1.5 0.0 0
M  V30 33 C -0.866 -2.9999 0.0 0
M  V30 34 C -2.598 1.0 0.0 0
M  V30 END ATOM
M  V30 BEGIN BOND
M  V30 1 2 1 2
M  V30 2 1 2 3
M  V30 3 1 2 4
M  V30 4 1 3 5
M  V30 5 1 4 6
M  V30 6 2 5 7
M  V30 7 1 5 8
M  V30 8 1 6 9 CFG=1
M  V30 9 1 7 10
M  V30 10 2 9 11
M  V30 11 1 9 12
M  V30 12 2 10 13
M  V30 13 1 10 14
M  V30 14 1 11 15
M  V30 15 2 12 16
M  V30 16 1 15 17
M  V30 17 2 15 18
M  V30 18 1 17 19
M  V30 19 1 18 20
M  V30 20 1 20 21
M  V30 21 1 21 22
M  V30 22 1 22 23
M  V30 23 1 23 24
M  V30 24 1 24 25
M  V30 25 2 24 26
M  V30 26 1 25 27
M  V30 27 2 25 28
M  V30 28 1 26 29
M  V30 29 1 27 30
M  V30 30 2 27 31
M  V30 31 1 28 32
M  V30 32 1 29 33
M  V30 33 1 31 34
M  V30 34 1 6 7
M  V30 35 1 16 18
M  V30 36 2 29 30
M  V30 37 2 32 34
M  V30 END BOND
M  V30 BEGIN COLLECTION
M  V30 MDLV30/STERAC1 ATOMS=(1 6)
M  V30 END COLLECTION
M  V30 END CTAB
M  END
>  <Molecule ChEMBL ID>
CHEMBL230670

>  <Smiles>
COc1cc(C2NC(=O)NC(C)=C2C(=O)O)ccc1OCCOc1cc(C)nc2ccccc12

>  <IC50_nM>
940

>  <Assay Description>
Displacement of [3H]rosiglitazone from PPAR gamma

$$$$
CHEMBL4743677
Actelion Java MolfileCreator 2.0

  0  0  0  0  0  0              0 V3000
M  V30 BEGIN CTAB
M  V30 COUNTS 25 25 0 0 0
M  V30 BEGIN ATOM
M  V30 1 O 11.2583 0.9999 0.0 0
M  V30 2 C 10.3923 1.5 0.0 0
M  V30 3 N 10.3923 2.5 0.0 0
M  V30 4 C 9.5262 0.9999 0.0 0
M  V30 5 C 11.2583 3.0 0.0 0 CFG=2
M  V30 6 C 8.6602 1.5 0.0 0
M  V30 7 C 9.5262 0.0 0.0 0
M  V30 8 C 12.1243 2.5 0.0 0
M  V30 9 C 11.2583 4.0 0.0 0
M  V30 10 C 7.7942 0.9999 0.0 0
M  V30 11 C 8.6602 -0.4999 0.0 0
M  V30 12 O 12.9903 3.0 0.0 0
M  V30 13 O 12.1243 1.5 0.0 0
M  V30 14 C 10.3923 4.5 0.0 0
M  V30 15 C 12.1243 4.5 0.0 0
M  V30 16 C 7.7942 0.0 0.0 0
M  V30 17 O 6.9282 -0.5 0.0 0
M  V30 18 C 6.0621 0.0 0.0 0
M  V30 19 C 5.1961 -0.5 0.0 0
M  V30 20 C 4.3301 0.0 0.0 0
M  V30 21 C 3.4641 -0.5 0.0 0
M  V30 22 C 2.598 0.0 0.0 0
M  V30 23 C 1.732 -0.5 0.0 0
M  V30 24 C 0.866 0.0 0.0 0
M  V30 25 C 0.0 -0.5 0.0 0
M  V30 END ATOM
M  V30 BEGIN BOND
M  V30 1 2 1 2
M  V30 2 1 2 3
M  V30 3 1 2 4
M  V30 4 1 5 3 CFG=1
M  V30 5 2 4 6
M  V30 6 1 4 7
M  V30 7 1 5 8
M  V30 8 1 5 9
M  V30 9 1 6 10
M  V30 10 2 7 11
M  V30 11 2 8 12
M  V30 12 1 8 13
M  V30 13 1 9 14
M  V30 14 1 9 15
M  V30 15 2 10 16
M  V30 16 1 16 17
M  V30 17 1 17 18
M  V30 18 1 18 19
M  V30 19 1 19 20
M  V30 20 1 20 21
M  V30 21 1 21 22
M  V30 22 1 22 23
M  V30 23 1 23 24
M  V30 24 1 24 25
M  V30 25 1 11 16
M  V30 END BOND
M  V30 BEGIN COLLECTION
M  V30 MDLV30/STEABS ATOMS=(1 5)
M  V30 END COLLECTION
M  V30 END CTAB
M  END
>  <Molecule ChEMBL ID>
CHEMBL4743677

>  <Smiles>
CCCCCCCCOc1ccc(C(=O)N[C@H](C(=O)O)C(C)C)cc1

>  <IC50_nM>
956.2

>  <Assay Description>
Agonist activity at PPARg-LBD (unknown origin) expressed in HEK293 cells assessed as displacement of NCoR incubated for 16 hrs by luciferase reporter gene based mammalian two hybrid assay

$$$$
CHEMBL256569
Actelion Java MolfileCreator 2.0

  0  0  0  0  0  0              0 V3000
M  V30 BEGIN CTAB
M  V30 COUNTS 37 40 0 0 0
M  V30 BEGIN ATOM
M  V30 1 O 6.0621 -3.0 0.0 0
M  V30 2 C 5.1961 -3.5 0.0 0
M  V30 3 O 5.1961 -4.5 0.0 0
M  V30 4 N 4.3301 -3.0 0.0 0
M  V30 5 C 4.3301 -5.0 0.0 0
M  V30 6 C 3.4641 -3.5 0.0 0
M  V30 7 C 4.3301 -2.0 0.0 0
M  V30 8 C 4.3301 -6.0 0.0 0
M  V30 9 C 2.598 -3.0 0.0 0
M  V30 10 C 3.4641 -1.5 0.0 0
M  V30 11 C 3.4641 -6.5 0.0 0
M  V30 12 C 2.598 -2.0 0.0 0
M  V30 13 C 1.732 -3.5 0.0 0
M  V30 14 C 1.732 -1.5 0.0 0
M  V30 15 C 1.732 -4.5 0.0 0
M  V30 16 O 0.866 -2.0 0.0 0
M  V30 17 O 1.732 -0.5 0.0 0
M  V30 18 C 0.866 -5.0 0.0 0
M  V30 19 C 2.598 -4.9999 0.0 0
M  V30 20 C 0.866 -5.9999 0.0 0
M  V30 21 C 2.598 -5.9999 0.0 0
M  V30 22 O 0.0 -6.5 0.0 0
M  V30 23 C 1.732 -6.4999 0.0 0
M  V30 24 C 0.0 -7.5 0.0 0
M  V30 25 C -0.866 -7.9999 0.0 0
M  V30 26 C -0.866 -9.0 0.0 0
M  V30 27 N -1.675 -9.5877 0.0 0
M  V30 28 C -0.057 -9.5877 0.0 0
M  V30 29 C -1.366 -10.5388 0.0 0
M  V30 30 O -0.366 -10.5388 0.0 0
M  V30 31 C 0.894 -9.2787 0.0 0
M  V30 32 C -1.9538 -11.3478 0.0 0
M  V30 33 C -2.9483 -11.2433 0.0 0
M  V30 34 C -1.547 -12.2614 0.0 0
M  V30 35 C -3.5361 -12.0523 0.0 0
M  V30 36 C -2.1348 -13.0704 0.0 0
M  V30 37 C -3.1293 -12.9658 0.0 0
M  V30 END ATOM
M  V30 BEGIN BOND
M  V30 1 2 1 2
M  V30 2 1 2 3
M  V30 3 1 2 4
M  V30 4 1 3 5
M  V30 5 1 4 6
M  V30 6 1 4 7
M  V30 7 1 5 8
M  V30 8 1 6 9
M  V30 9 1 7 10
M  V30 10 1 8 11
M  V30 11 2 9 12
M  V30 12 1 9 13
M  V30 13 1 12 14
M  V30 14 1 13 15
M  V30 15 2 14 16
M  V30 16 1 14 17
M  V30 17 2 15 18
M  V30 18 1 15 19
M  V30 19 1 18 20
M  V30 20 2 19 21
M  V30 21 1 20 22
M  V30 22 2 20 23
M  V30 23 1 22 24
M  V30 24 1 24 25
M  V30 25 1 25 26
M  V30 26 1 26 27
M  V30 27 2 26 28
M  V30 28 2 27 29
M  V30 29 1 28 30
M  V30 30 1 28 31
M  V30 31 1 29 32
M  V30 32 2 32 33
M  V30 33 1 32 34
M  V30 34 1 33 35
M  V30 35 2 34 36
M  V30 36 2 35 37
M  V30 37 1 10 12
M  V30 38 1 21 23
M  V30 39 1 29 30
M  V30 40 1 36 37
M  V30 END BOND
M  V30 END CTAB
M  END
>  <Molecule ChEMBL ID>
CHEMBL256569

>  <Smiles>
CCCOC(=O)N1CCC(C(=O)O)=C(Cc2cccc(OCCc3nc(-c4ccccc4)oc3C)c2)C1

>  <IC50_nM>
970

>  <Assay Description>
Binding affinity at human PPARalpha by fluorescence polarization

$$$$
CHEMBL1629930
Actelion Java MolfileCreator 2.0

  0  0  0  0  0  0              0 V3000
M  V30 BEGIN CTAB
M  V30 COUNTS 29 32 0 0 0
M  V30 BEGIN ATOM
M  V30 1 O 6.0621 1.0 0.0 0
M  V30 2 N 5.1961 1.5 0.0 0 CHG=1
M  V30 3 O 5.1961 2.5 0.0 0 CHG=-1
M  V30 4 C 4.3301 1.0 0.0 0
M  V30 5 C 3.4641 1.5 0.0 0
M  V30 6 C 4.3301 0.0 0.0 0
M  V30 7 C 2.598 0.9999 0.0 0
M  V30 8 C 3.4641 -0.4999 0.0 0
M  V30 9 C 2.598 0.0 0.0 0
M  V30 10 O 1.732 -0.5 0.0 0
M  V30 11 C 0.866 0.0 0.0 0
M  V30 12 O 0.866 1.0 0.0 0
M  V30 13 C 0.0 -0.5 0.0 0
M  V30 14 C -0.9135 -0.0932 0.0 0
M  V30 15 C -0.1045 -1.4945 0.0 0
M  V30 16 N -1.5826 -0.8364 0.0 0
M  V30 17 C -1.1214 0.8848 0.0 0
M  V30 18 N -1.0826 -1.7024 0.0 0
M  V30 19 C -0.3783 1.554 0.0 0
M  V30 20 C -2.0725 1.1939 0.0 0
M  V30 21 C -1.4894 -2.6159 0.0 0
M  V30 22 C -0.5862 2.5321 0.0 0
M  V30 23 C -2.2804 2.172 0.0 0
M  V30 24 C -2.4839 -2.7205 0.0 0
M  V30 25 C -0.9016 -3.4249 0.0 0
M  V30 26 C -1.5372 2.8411 0.0 0
M  V30 27 C -2.8906 -3.634 0.0 0
M  V30 28 C -1.3083 -4.3385 0.0 0
M  V30 29 C -2.3028 -4.443 0.0 0
M  V30 END ATOM
M  V30 BEGIN BOND
M  V30 1 2 1 2
M  V30 2 1 2 3
M  V30 3 1 2 4
M  V30 4 2 4 5
M  V30 5 1 4 6
M  V30 6 1 5 7
M  V30 7 2 6 8
M  V30 8 2 7 9
M  V30 9 1 9 10
M  V30 10 1 10 11
M  V30 11 2 11 12
M  V30 12 1 11 13
M  V30 13 1 13 14
M  V30 14 2 13 15
M  V30 15 2 14 16
M  V30 16 1 14 17
M  V30 17 1 15 18
M  V30 18 2 17 19
M  V30 19 1 17 20
M  V30 20 1 18 21
M  V30 21 1 19 22
M  V30 22 2 20 23
M  V30 23 2 21 24
M  V30 24 1 21 25
M  V30 25 2 22 26
M  V30 26 1 24 27
M  V30 27 2 25 28
M  V30 28 2 27 29
M  V30 29 1 8 9
M  V30 30 1 16 18
M  V30 31 1 23 26
M  V30 32 1 28 29
M  V30 END BOND
M  V30 END CTAB
M  END
>  <Molecule ChEMBL ID>
CHEMBL1629930

>  <Smiles>
O=C(Oc1ccc([N+](=O)[O-])cc1)c1cn(-c2ccccc2)nc1-c1ccccc1

>  <IC50_nM>
973

>  <Assay Description>
Displacement of fluormone PPAR-green from N-terminal His-tagged human PPARgamma-LBD after 2 hrs by fluorescence polarization assay

$$$$
CHEMBL241298
Actelion Java MolfileCreator 2.0

  0  0  0  0  0  0              0 V3000
M  V30 BEGIN CTAB
M  V30 COUNTS 31 33 0 0 0
M  V30 BEGIN ATOM
M  V30 1 O 8.6602 -4.5 0.0 0
M  V30 2 C 8.6602 -3.5 0.0 0
M  V30 3 O 9.5262 -3.0 0.0 0
M  V30 4 C 7.7942 -3.0 0.0 0
M  V30 5 C 7.7942 -2.0 0.0 0
M  V30 6 C 6.9282 -1.5 0.0 0
M  V30 7 C 6.9282 -0.5 0.0 0
M  V30 8 C 6.0621 -2.0 0.0 0
M  V30 9 C 6.0621 0.0 0.0 0
M  V30 10 C 7.7942 0.0 0.0 0
M  V30 11 C 5.1961 -1.5 0.0 0
M  V30 12 C 5.1961 -0.5 0.0 0
M  V30 13 O 4.3301 0.0 0.0 0
M  V30 14 C 3.4641 -0.5 0.0 0
M  V30 15 C 2.598 0.0 0.0 0
M  V30 16 C 1.732 -0.5 0.0 0 CFG=2
M  V30 17 O 0.866 0.0 0.0 0
M  V30 18 C 1.732 -1.5 0.0 0
M  V30 19 C 0.0 -0.5 0.0 0
M  V30 20 C -0.866 0.0 0.0 0
M  V30 21 C 0.0 -1.4999 0.0 0
M  V30 22 C -0.866 1.0 0.0 0
M  V30 23 C -1.732 -0.4999 0.0 0
M  V30 24 C -0.866 -1.9999 0.0 0
M  V30 25 N -0.057 1.5877 0.0 0
M  V30 26 C -1.675 1.5877 0.0 0
M  V30 27 C -1.732 -1.4999 0.0 0
M  V30 28 C -0.366 2.5388 0.0 0
M  V30 29 O -1.366 2.5388 0.0 0
M  V30 30 C -2.598 -1.9999 0.0 0
M  V30 31 C -2.598 -2.9999 0.0 0
M  V30 END ATOM
M  V30 BEGIN BOND
M  V30 1 2 1 2
M  V30 2 1 2 3
M  V30 3 1 2 4
M  V30 4 1 4 5
M  V30 5 1 5 6
M  V30 6 2 6 7
M  V30 7 1 6 8
M  V30 8 1 7 9
M  V30 9 1 7 10
M  V30 10 2 8 11
M  V30 11 2 9 12
M  V30 12 1 12 13
M  V30 13 1 13 14
M  V30 14 1 14 15
M  V30 15 1 15 16
M  V30 16 1 16 17
M  V30 17 1 16 18 CFG=1
M  V30 18 1 17 19
M  V30 19 2 19 20
M  V30 20 1 19 21
M  V30 21 1 20 22
M  V30 22 1 20 23
M  V30 23 2 21 24
M  V30 24 1 22 25
M  V30 25 2 22 26
M  V30 26 2 23 27
M  V30 27 2 25 28
M  V30 28 1 26 29
M  V30 29 1 27 30
M  V30 30 1 30 31
M  V30 31 1 11 12
M  V30 32 1 24 27
M  V30 33 1 28 29
M  V30 END BOND
M  V30 BEGIN COLLECTION
M  V30 MDLV30/STEABS ATOMS=(1 16)
M  V30 END COLLECTION
M  V30 END CTAB
M  END
>  <Molecule ChEMBL ID>
CHEMBL241298

>  <Smiles>
CCc1ccc(O[C@H](C)CCOc2ccc(CCC(=O)O)c(C)c2)c(-c2cocn2)c1

>  <IC50_nM>
979

>  <Assay Description>
Displacement of [3H]2-methyl-2-(4-{3-[porpyl-(5-pyridin-2yl-thiophene-2-sulfonyl)-amino]-propyl}-phenoxy)-propionic acid from human PPARgamma

$$$$
CHEMBL241298
Actelion Java MolfileCreator 2.0

  0  0  0  0  0  0              0 V3000
M  V30 BEGIN CTAB
M  V30 COUNTS 31 33 0 0 0
M  V30 BEGIN ATOM
M  V30 1 O 8.6602 -4.5 0.0 0
M  V30 2 C 8.6602 -3.5 0.0 0
M  V30 3 O 9.5262 -3.0 0.0 0
M  V30 4 C 7.7942 -3.0 0.0 0
M  V30 5 C 7.7942 -2.0 0.0 0
M  V30 6 C 6.9282 -1.5 0.0 0
M  V30 7 C 6.9282 -0.5 0.0 0
M  V30 8 C 6.0621 -2.0 0.0 0
M  V30 9 C 6.0621 0.0 0.0 0
M  V30 10 C 7.7942 0.0 0.0 0
M  V30 11 C 5.1961 -1.5 0.0 0
M  V30 12 C 5.1961 -0.5 0.0 0
M  V30 13 O 4.3301 0.0 0.0 0
M  V30 14 C 3.4641 -0.5 0.0 0
M  V30 15 C 2.598 0.0 0.0 0
M  V30 16 C 1.732 -0.5 0.0 0 CFG=2
M  V30 17 O 0.866 0.0 0.0 0
M  V30 18 C 1.732 -1.5 0.0 0
M  V30 19 C 0.0 -0.5 0.0 0
M  V30 20 C -0.866 0.0 0.0 0
M  V30 21 C 0.0 -1.4999 0.0 0
M  V30 22 C -0.866 1.0 0.0 0
M  V30 23 C -1.732 -0.4999 0.0 0
M  V30 24 C -0.866 -1.9999 0.0 0
M  V30 25 N -0.057 1.5877 0.0 0
M  V30 26 C -1.675 1.5877 0.0 0
M  V30 27 C -1.732 -1.4999 0.0 0
M  V30 28 C -0.366 2.5388 0.0 0
M  V30 29 O -1.366 2.5388 0.0 0
M  V30 30 C -2.598 -1.9999 0.0 0
M  V30 31 C -2.598 -2.9999 0.0 0
M  V30 END ATOM
M  V30 BEGIN BOND
M  V30 1 2 1 2
M  V30 2 1 2 3
M  V30 3 1 2 4
M  V30 4 1 4 5
M  V30 5 1 5 6
M  V30 6 2 6 7
M  V30 7 1 6 8
M  V30 8 1 7 9
M  V30 9 1 7 10
M  V30 10 2 8 11
M  V30 11 2 9 12
M  V30 12 1 12 13
M  V30 13 1 13 14
M  V30 14 1 14 15
M  V30 15 1 15 16
M  V30 16 1 16 17
M  V30 17 1 16 18 CFG=1
M  V30 18 1 17 19
M  V30 19 2 19 20
M  V30 20 1 19 21
M  V30 21 1 20 22
M  V30 22 1 20 23
M  V30 23 2 21 24
M  V30 24 1 22 25
M  V30 25 2 22 26
M  V30 26 2 23 27
M  V30 27 2 25 28
M  V30 28 1 26 29
M  V30 29 1 27 30
M  V30 30 1 30 31
M  V30 31 1 11 12
M  V30 32 1 24 27
M  V30 33 1 28 29
M  V30 END BOND
M  V30 BEGIN COLLECTION
M  V30 MDLV30/STEABS ATOMS=(1 16)
M  V30 END COLLECTION
M  V30 END CTAB
M  END
>  <Molecule ChEMBL ID>
CHEMBL241298

>  <Smiles>
CCc1ccc(O[C@H](C)CCOc2ccc(CCC(=O)O)c(C)c2)c(-c2cocn2)c1

>  <IC50_nM>
979.49

>  <Assay Description>
Agonist activity at PPARgamma

$$$$
CHEMBL550762
Actelion Java MolfileCreator 2.0

  0  0  0  0  0  0              0 V3000
M  V30 BEGIN CTAB
M  V30 COUNTS 23 22 0 0 0
M  V30 BEGIN ATOM
M  V30 1 O 12.9903 2.25 0.0 0
M  V30 2 N 11.6913 1.5 0.0 0 CHG=1
M  V30 3 O 10.3923 2.25 0.0 0 CHG=-1
M  V30 4 C 11.6913 0.0 0.0 0
M  V30 5 C 12.9903 -0.75 0.0 0
M  V30 6 C 10.3923 -0.75 0.0 0
M  V30 7 C 12.9903 -2.25 0.0 0
M  V30 8 C 9.0932 0.0 0.0 0
M  V30 9 C 14.2894 -2.9999 0.0 0
M  V30 10 C 7.7942 -0.75 0.0 0
M  V30 11 C 14.2894 -4.4999 0.0 0
M  V30 12 C 6.4951 0.0 0.0 0
M  V30 13 C 15.5884 -5.25 0.0 0
M  V30 14 C 5.1961 -0.75 0.0 0
M  V30 15 C 15.5884 -6.7499 0.0 0
M  V30 16 C 3.8971 0.0 0.0 0
M  V30 17 C 16.8874 -7.4999 0.0 0
M  V30 18 C 2.598 -0.75 0.0 0
M  V30 19 C 16.8874 -8.9999 0.0 0
M  V30 20 C 1.299 0.0 0.0 0
M  V30 21 C 18.1865 -9.7499 0.0 0
M  V30 22 O 1.299 1.5 0.0 0
M  V30 23 O 0.0 -0.75 0.0 0
M  V30 END ATOM
M  V30 BEGIN BOND
M  V30 1 2 1 2
M  V30 2 1 2 3
M  V30 3 1 2 4
M  V30 4 2 4 5
M  V30 5 1 4 6
M  V30 6 1 5 7
M  V30 7 1 6 8
M  V30 8 1 7 9
M  V30 9 1 8 10
M  V30 10 1 9 11
M  V30 11 1 10 12
M  V30 12 1 11 13
M  V30 13 1 12 14
M  V30 14 1 13 15
M  V30 15 1 14 16
M  V30 16 1 15 17
M  V30 17 1 16 18
M  V30 18 1 17 19
M  V30 19 1 18 20
M  V30 20 1 19 21
M  V30 21 2 20 22
M  V30 22 1 20 23
M  V30 END BOND
M  V30 END CTAB
M  END
>  <Molecule ChEMBL ID>
CHEMBL550762

>  <Smiles>
CCCCCCCC/C=C(\CCCCCCCC(=O)O)[N+](=O)[O-]

>  <IC50_nM>
980

>  <Assay Description>
Displacement of [3H2]nTZD3 from GST-tagged human recombinant PPARgamma by scintillation proximity assay

$$$$
CHEMBL4089408
Actelion Java MolfileCreator 2.0

  0  0  0  0  0  0              0 V3000
M  V30 BEGIN CTAB
M  V30 COUNTS 33 35 0 0 0
M  V30 BEGIN ATOM
M  V30 1 S 9.0932 0.0 0.0 0
M  V30 2 O 9.8432 1.299 0.0 0
M  V30 3 O 8.3432 1.299 0.0 0
M  V30 4 N 7.7942 -0.75 0.0 0
M  V30 5 C 10.3923 -0.75 0.0 0
M  V30 6 C 6.4951 0.0 0.0 0
M  V30 7 C 10.3923 -2.25 0.0 0
M  V30 8 C 11.6913 0.0 0.0 0
M  V30 9 O 6.4951 1.5 0.0 0
M  V30 10 N 5.1961 -0.75 0.0 0
M  V30 11 C 11.6913 -3.0 0.0 0
M  V30 12 C 12.9903 -0.75 0.0 0
M  V30 13 C 3.8971 0.0 0.0 0
M  V30 14 C 12.9903 -2.25 0.0 0
M  V30 15 C 2.598 -0.75 0.0 0
M  V30 16 N 14.2894 -3.0 0.0 0
M  V30 17 C 1.299 0.0 0.0 0
M  V30 18 C 15.5884 -2.25 0.0 0
M  V30 19 C 0.0 -0.75 0.0 0
M  V30 20 O 15.5884 -0.75 0.0 0
M  V30 21 C 16.8875 -3.0 0.0 0
M  V30 22 N 18.1865 -2.25 0.0 0
M  V30 23 C 19.4855 -3.0 0.0 0
M  V30 24 C 18.1865 -0.75 0.0 0
M  V30 25 O 19.4855 -4.5 0.0 0
M  V30 26 C 20.7846 -2.25 0.0 0
M  V30 27 N 19.4855 0.0 0.0 0
M  V30 28 C 16.8875 0.0 0.0 0
M  V30 29 C 20.7846 -0.75 0.0 0
M  V30 30 C 22.0836 -3.0 0.0 0
M  V30 31 C 22.0836 0.0 0.0 0
M  V30 32 C 23.3827 -2.25 0.0 0
M  V30 33 C 23.3827 -0.75 0.0 0
M  V30 END ATOM
M  V30 BEGIN BOND
M  V30 1 2 1 2
M  V30 2 2 1 3
M  V30 3 1 1 4
M  V30 4 1 1 5
M  V30 5 1 4 6
M  V30 6 2 5 7
M  V30 7 1 5 8
M  V30 8 2 6 9
M  V30 9 1 6 10
M  V30 10 1 7 11
M  V30 11 2 8 12
M  V30 12 1 10 13
M  V30 13 2 11 14
M  V30 14 1 13 15
M  V30 15 1 14 16
M  V30 16 1 15 17
M  V30 17 1 16 18
M  V30 18 1 17 19
M  V30 19 2 18 20
M  V30 20 1 18 21
M  V30 21 1 21 22
M  V30 22 1 22 23
M  V30 23 1 22 24
M  V30 24 2 23 25
M  V30 25 1 23 26
M  V30 26 2 24 27
M  V30 27 1 24 28
M  V30 28 2 26 29
M  V30 29 1 26 30
M  V30 30 1 29 31
M  V30 31 2 30 32
M  V30 32 2 31 33
M  V30 33 1 12 14
M  V30 34 1 27 29
M  V30 35 1 32 33
M  V30 END BOND
M  V30 END CTAB
M  END
>  <Molecule ChEMBL ID>
CHEMBL4089408

>  <Smiles>
CCCCNC(=O)NS(=O)(=O)c1ccc(NC(=O)Cn2c(C)nc3ccccc3c2=O)cc1

>  <IC50_nM>
980

>  <Assay Description>
Displacement of fluormone-PPARgamma green from GST-tagged PPARgamma-LBD (unknown origin) by fluorescence polarization assay

$$$$
CHEMBL326273
Actelion Java MolfileCreator 2.0

  0  0  0  0  0  0              0 V3000
M  V30 BEGIN CTAB
M  V30 COUNTS 34 37 0 0 0
M  V30 BEGIN ATOM
M  V30 1 O 15.5884 -0.7499 0.0 0
M  V30 2 C 14.2894 0.0 0.0 0
M  V30 3 O 14.2894 1.5 0.0 0
M  V30 4 C 12.9903 -0.75 0.0 0 CFG=1
M  V30 5 O 11.6913 0.0 0.0 0
M  V30 6 C 12.9903 -2.25 0.0 0
M  V30 7 C 10.3923 -0.75 0.0 0
M  V30 8 C 11.6913 -3.0 0.0 0
M  V30 9 C 10.3923 -2.25 0.0 0
M  V30 10 C 9.0932 0.0 0.0 0
M  V30 11 C 9.0932 -3.0 0.0 0
M  V30 12 C 7.7942 -0.75 0.0 0
M  V30 13 C 7.7942 -2.25 0.0 0
M  V30 14 O 6.4951 0.0 0.0 0
M  V30 15 C 5.1961 -0.75 0.0 0
M  V30 16 C 3.8971 0.0 0.0 0
M  V30 17 C 2.598 -0.75 0.0 0
M  V30 18 O 1.299 0.0 0.0 0
M  V30 19 C 0.0 -0.75 0.0 0
M  V30 20 C -1.299 0.0 0.0 0
M  V30 21 C 0.0 -2.25 0.0 0
M  V30 22 C -2.598 -0.7499 0.0 0
M  V30 23 C -1.299 1.5 0.0 0
M  V30 24 C -1.299 -2.9999 0.0 0
M  V30 25 C -2.598 -2.2499 0.0 0
M  V30 26 C 0.0 2.25 0.0 0
M  V30 27 O -3.8971 -2.9999 0.0 0
M  V30 28 C 0.0 3.75 0.0 0
M  V30 29 C -3.8971 -4.4999 0.0 0
M  V30 30 C -5.1961 -5.2499 0.0 0
M  V30 31 C -2.598 -5.2499 0.0 0
M  V30 32 C -5.1961 -6.7499 0.0 0
M  V30 33 C -2.598 -6.7499 0.0 0
M  V30 34 C -3.8971 -7.4999 0.0 0
M  V30 END ATOM
M  V30 BEGIN BOND
M  V30 1 2 1 2
M  V30 2 1 2 3
M  V30 3 1 4 2 CFG=3
M  V30 4 1 4 5
M  V30 5 1 4 6
M  V30 6 1 5 7
M  V30 7 1 6 8
M  V30 8 2 7 9
M  V30 9 1 7 10
M  V30 10 1 9 11
M  V30 11 2 10 12
M  V30 12 2 11 13
M  V30 13 1 12 14
M  V30 14 1 14 15
M  V30 15 1 15 16
M  V30 16 1 16 17
M  V30 17 1 17 18
M  V30 18 1 18 19
M  V30 19 2 19 20
M  V30 20 1 19 21
M  V30 21 1 20 22
M  V30 22 1 20 23
M  V30 23 2 21 24
M  V30 24 2 22 25
M  V30 25 1 23 26
M  V30 26 1 25 27
M  V30 27 1 26 28
M  V30 28 1 27 29
M  V30 29 2 29 30
M  V30 30 1 29 31
M  V30 31 1 30 32
M  V30 32 2 31 33
M  V30 33 2 32 34
M  V30 34 1 8 9
M  V30 35 1 12 13
M  V30 36 1 24 25
M  V30 37 1 33 34
M  V30 END BOND
M  V30 BEGIN COLLECTION
M  V30 MDLV30/STERAC1 ATOMS=(1 4)
M  V30 END COLLECTION
M  V30 END CTAB
M  END
>  <Molecule ChEMBL ID>
CHEMBL326273

>  <Smiles>
CCCc1cc(Oc2ccccc2)ccc1OCCCOc1ccc2c(c1)OC(C(=O)O)CC2

>  <IC50_nM>
980

>  <Assay Description>
In vitro binding affinity for human peroxisome proliferator activated receptor gamma using scintillation proximity assay (SPA)

$$$$
CHEMBL206794
Actelion Java MolfileCreator 2.0

  0  0  0  0  0  0              0 V3000
M  V30 BEGIN CTAB
M  V30 COUNTS 33 35 0 0 0
M  V30 BEGIN ATOM
M  V30 1 Cl 9.0932 1.5 0.0 0
M  V30 2 C 9.0932 0.0 0.0 0
M  V30 3 C 7.7942 -0.75 0.0 0
M  V30 4 C 10.3923 -0.75 0.0 0
M  V30 5 O 6.4951 0.0 0.0 0
M  V30 6 C 7.7942 -2.25 0.0 0
M  V30 7 C 10.3923 -2.25 0.0 0
M  V30 8 C 5.1961 -0.75 0.0 0
M  V30 9 C 9.0932 -3.0 0.0 0
M  V30 10 O 11.6913 -3.0 0.0 0
M  V30 11 C 3.8971 0.0 0.0 0
M  V30 12 C 12.9903 -2.25 0.0 0
M  V30 13 C 2.598 -0.75 0.0 0
M  V30 14 C 14.2894 -3.0 0.0 0
M  V30 15 C 12.9903 -0.75 0.0 0
M  V30 16 O 1.299 0.0 0.0 0
M  V30 17 C 15.5884 -2.25 0.0 0
M  V30 18 C 14.2894 0.0 0.0 0
M  V30 19 C 0.0 -0.75 0.0 0
M  V30 20 C 15.5884 -0.75 0.0 0
M  V30 21 C -1.299 0.0 0.0 0
M  V30 22 C 0.0 -2.25 0.0 0
M  V30 23 F 16.8875 0.0 0.0 0
M  V30 24 C -2.598 -0.75 0.0 0
M  V30 25 C -1.299 -3.0 0.0 0
M  V30 26 C -2.598 -2.25 0.0 0
M  V30 27 O -3.8971 -3.0 0.0 0
M  V30 28 C -3.8971 -4.5 0.0 0
M  V30 29 C -5.1961 -5.25 0.0 0
M  V30 30 C -3.1471 -5.799 0.0 0
M  V30 31 C -2.3971 -4.4999 0.0 0
M  V30 32 O -6.4951 -4.5 0.0 0
M  V30 33 O -5.1961 -6.75 0.0 0
M  V30 END ATOM
M  V30 BEGIN BOND
M  V30 1 1 1 2
M  V30 2 2 2 3
M  V30 3 1 2 4
M  V30 4 1 3 5
M  V30 5 1 3 6
M  V30 6 2 4 7
M  V30 7 1 5 8
M  V30 8 2 6 9
M  V30 9 1 7 10
M  V30 10 1 8 11
M  V30 11 1 10 12
M  V30 12 1 11 13
M  V30 13 2 12 14
M  V30 14 1 12 15
M  V30 15 1 13 16
M  V30 16 1 14 17
M  V30 17 2 15 18
M  V30 18 1 16 19
M  V30 19 2 17 20
M  V30 20 2 19 21
M  V30 21 1 19 22
M  V30 22 1 20 23
M  V30 23 1 21 24
M  V30 24 2 22 25
M  V30 25 2 24 26
M  V30 26 1 26 27
M  V30 27 1 27 28
M  V30 28 1 28 29
M  V30 29 1 28 30
M  V30 30 1 28 31
M  V30 31 2 29 32
M  V30 32 1 29 33
M  V30 33 1 7 9
M  V30 34 1 18 20
M  V30 35 1 25 26
M  V30 END BOND
M  V30 END CTAB
M  END
>  <Molecule ChEMBL ID>
CHEMBL206794

>  <Smiles>
CC(C)(Oc1ccc(OCCCOc2ccc(Oc3ccc(F)cc3)cc2Cl)cc1)C(=O)O

>  <IC50_nM>
981

>  <Assay Description>
Displacement of radio-labeled full agonist from PPARgamma receptor

$$$$
CHEMBL206794
Actelion Java MolfileCreator 2.0

  0  0  0  0  0  0              0 V3000
M  V30 BEGIN CTAB
M  V30 COUNTS 33 35 0 0 0
M  V30 BEGIN ATOM
M  V30 1 Cl 9.0932 1.5 0.0 0
M  V30 2 C 9.0932 0.0 0.0 0
M  V30 3 C 7.7942 -0.75 0.0 0
M  V30 4 C 10.3923 -0.75 0.0 0
M  V30 5 O 6.4951 0.0 0.0 0
M  V30 6 C 7.7942 -2.25 0.0 0
M  V30 7 C 10.3923 -2.25 0.0 0
M  V30 8 C 5.1961 -0.75 0.0 0
M  V30 9 C 9.0932 -3.0 0.0 0
M  V30 10 O 11.6913 -3.0 0.0 0
M  V30 11 C 3.8971 0.0 0.0 0
M  V30 12 C 12.9903 -2.25 0.0 0
M  V30 13 C 2.598 -0.75 0.0 0
M  V30 14 C 14.2894 -3.0 0.0 0
M  V30 15 C 12.9903 -0.75 0.0 0
M  V30 16 O 1.299 0.0 0.0 0
M  V30 17 C 15.5884 -2.25 0.0 0
M  V30 18 C 14.2894 0.0 0.0 0
M  V30 19 C 0.0 -0.75 0.0 0
M  V30 20 C 15.5884 -0.75 0.0 0
M  V30 21 C -1.299 0.0 0.0 0
M  V30 22 C 0.0 -2.25 0.0 0
M  V30 23 F 16.8875 0.0 0.0 0
M  V30 24 C -2.598 -0.75 0.0 0
M  V30 25 C -1.299 -3.0 0.0 0
M  V30 26 C -2.598 -2.25 0.0 0
M  V30 27 O -3.8971 -3.0 0.0 0
M  V30 28 C -3.8971 -4.5 0.0 0
M  V30 29 C -5.1961 -5.25 0.0 0
M  V30 30 C -3.1471 -5.799 0.0 0
M  V30 31 C -2.3971 -4.4999 0.0 0
M  V30 32 O -6.4951 -4.5 0.0 0
M  V30 33 O -5.1961 -6.75 0.0 0
M  V30 END ATOM
M  V30 BEGIN BOND
M  V30 1 1 1 2
M  V30 2 2 2 3
M  V30 3 1 2 4
M  V30 4 1 3 5
M  V30 5 1 3 6
M  V30 6 2 4 7
M  V30 7 1 5 8
M  V30 8 2 6 9
M  V30 9 1 7 10
M  V30 10 1 8 11
M  V30 11 1 10 12
M  V30 12 1 11 13
M  V30 13 2 12 14
M  V30 14 1 12 15
M  V30 15 1 13 16
M  V30 16 1 14 17
M  V30 17 2 15 18
M  V30 18 1 16 19
M  V30 19 2 17 20
M  V30 20 2 19 21
M  V30 21 1 19 22
M  V30 22 1 20 23
M  V30 23 1 21 24
M  V30 24 2 22 25
M  V30 25 2 24 26
M  V30 26 1 26 27
M  V30 27 1 27 28
M  V30 28 1 28 29
M  V30 29 1 28 30
M  V30 30 1 28 31
M  V30 31 2 29 32
M  V30 32 1 29 33
M  V30 33 1 7 9
M  V30 34 1 18 20
M  V30 35 1 25 26
M  V30 END BOND
M  V30 END CTAB
M  END
>  <Molecule ChEMBL ID>
CHEMBL206794

>  <Smiles>
CC(C)(Oc1ccc(OCCCOc2ccc(Oc3ccc(F)cc3)cc2Cl)cc1)C(=O)O

>  <IC50_nM>
981

>  <Assay Description>
Binding affinity to human PPAR gamma

$$$$
CHEMBL206794
Actelion Java MolfileCreator 2.0

  0  0  0  0  0  0              0 V3000
M  V30 BEGIN CTAB
M  V30 COUNTS 33 35 0 0 0
M  V30 BEGIN ATOM
M  V30 1 Cl 9.0932 1.5 0.0 0
M  V30 2 C 9.0932 0.0 0.0 0
M  V30 3 C 7.7942 -0.75 0.0 0
M  V30 4 C 10.3923 -0.75 0.0 0
M  V30 5 O 6.4951 0.0 0.0 0
M  V30 6 C 7.7942 -2.25 0.0 0
M  V30 7 C 10.3923 -2.25 0.0 0
M  V30 8 C 5.1961 -0.75 0.0 0
M  V30 9 C 9.0932 -3.0 0.0 0
M  V30 10 O 11.6913 -3.0 0.0 0
M  V30 11 C 3.8971 0.0 0.0 0
M  V30 12 C 12.9903 -2.25 0.0 0
M  V30 13 C 2.598 -0.75 0.0 0
M  V30 14 C 14.2894 -3.0 0.0 0
M  V30 15 C 12.9903 -0.75 0.0 0
M  V30 16 O 1.299 0.0 0.0 0
M  V30 17 C 15.5884 -2.25 0.0 0
M  V30 18 C 14.2894 0.0 0.0 0
M  V30 19 C 0.0 -0.75 0.0 0
M  V30 20 C 15.5884 -0.75 0.0 0
M  V30 21 C -1.299 0.0 0.0 0
M  V30 22 C 0.0 -2.25 0.0 0
M  V30 23 F 16.8875 0.0 0.0 0
M  V30 24 C -2.598 -0.75 0.0 0
M  V30 25 C -1.299 -3.0 0.0 0
M  V30 26 C -2.598 -2.25 0.0 0
M  V30 27 O -3.8971 -3.0 0.0 0
M  V30 28 C -3.8971 -4.5 0.0 0
M  V30 29 C -5.1961 -5.25 0.0 0
M  V30 30 C -3.1471 -5.799 0.0 0
M  V30 31 C -2.3971 -4.4999 0.0 0
M  V30 32 O -6.4951 -4.5 0.0 0
M  V30 33 O -5.1961 -6.75 0.0 0
M  V30 END ATOM
M  V30 BEGIN BOND
M  V30 1 1 1 2
M  V30 2 2 2 3
M  V30 3 1 2 4
M  V30 4 1 3 5
M  V30 5 1 3 6
M  V30 6 2 4 7
M  V30 7 1 5 8
M  V30 8 2 6 9
M  V30 9 1 7 10
M  V30 10 1 8 11
M  V30 11 1 10 12
M  V30 12 1 11 13
M  V30 13 2 12 14
M  V30 14 1 12 15
M  V30 15 1 13 16
M  V30 16 1 14 17
M  V30 17 2 15 18
M  V30 18 1 16 19
M  V30 19 2 17 20
M  V30 20 2 19 21
M  V30 21 1 19 22
M  V30 22 1 20 23
M  V30 23 1 21 24
M  V30 24 2 22 25
M  V30 25 2 24 26
M  V30 26 1 26 27
M  V30 27 1 27 28
M  V30 28 1 28 29
M  V30 29 1 28 30
M  V30 30 1 28 31
M  V30 31 2 29 32
M  V30 32 1 29 33
M  V30 33 1 7 9
M  V30 34 1 18 20
M  V30 35 1 25 26
M  V30 END BOND
M  V30 END CTAB
M  END
>  <Molecule ChEMBL ID>
CHEMBL206794

>  <Smiles>
CC(C)(Oc1ccc(OCCCOc2ccc(Oc3ccc(F)cc3)cc2Cl)cc1)C(=O)O

>  <IC50_nM>
981

>  <Assay Description>
Agonist activity at PPARgamma

$$$$
CHEMBL206794
Actelion Java MolfileCreator 2.0

  0  0  0  0  0  0              0 V3000
M  V30 BEGIN CTAB
M  V30 COUNTS 33 35 0 0 0
M  V30 BEGIN ATOM
M  V30 1 Cl 9.0932 1.5 0.0 0
M  V30 2 C 9.0932 0.0 0.0 0
M  V30 3 C 7.7942 -0.75 0.0 0
M  V30 4 C 10.3923 -0.75 0.0 0
M  V30 5 O 6.4951 0.0 0.0 0
M  V30 6 C 7.7942 -2.25 0.0 0
M  V30 7 C 10.3923 -2.25 0.0 0
M  V30 8 C 5.1961 -0.75 0.0 0
M  V30 9 C 9.0932 -3.0 0.0 0
M  V30 10 O 11.6913 -3.0 0.0 0
M  V30 11 C 3.8971 0.0 0.0 0
M  V30 12 C 12.9903 -2.25 0.0 0
M  V30 13 C 2.598 -0.75 0.0 0
M  V30 14 C 14.2894 -3.0 0.0 0
M  V30 15 C 12.9903 -0.75 0.0 0
M  V30 16 O 1.299 0.0 0.0 0
M  V30 17 C 15.5884 -2.25 0.0 0
M  V30 18 C 14.2894 0.0 0.0 0
M  V30 19 C 0.0 -0.75 0.0 0
M  V30 20 C 15.5884 -0.75 0.0 0
M  V30 21 C -1.299 0.0 0.0 0
M  V30 22 C 0.0 -2.25 0.0 0
M  V30 23 F 16.8875 0.0 0.0 0
M  V30 24 C -2.598 -0.75 0.0 0
M  V30 25 C -1.299 -3.0 0.0 0
M  V30 26 C -2.598 -2.25 0.0 0
M  V30 27 O -3.8971 -3.0 0.0 0
M  V30 28 C -3.8971 -4.5 0.0 0
M  V30 29 C -5.1961 -5.25 0.0 0
M  V30 30 C -3.1471 -5.799 0.0 0
M  V30 31 C -2.3971 -4.4999 0.0 0
M  V30 32 O -6.4951 -4.5 0.0 0
M  V30 33 O -5.1961 -6.75 0.0 0
M  V30 END ATOM
M  V30 BEGIN BOND
M  V30 1 1 1 2
M  V30 2 2 2 3
M  V30 3 1 2 4
M  V30 4 1 3 5
M  V30 5 1 3 6
M  V30 6 2 4 7
M  V30 7 1 5 8
M  V30 8 2 6 9
M  V30 9 1 7 10
M  V30 10 1 8 11
M  V30 11 1 10 12
M  V30 12 1 11 13
M  V30 13 2 12 14
M  V30 14 1 12 15
M  V30 15 1 13 16
M  V30 16 1 14 17
M  V30 17 2 15 18
M  V30 18 1 16 19
M  V30 19 2 17 20
M  V30 20 2 19 21
M  V30 21 1 19 22
M  V30 22 1 20 23
M  V30 23 1 21 24
M  V30 24 2 22 25
M  V30 25 2 24 26
M  V30 26 1 26 27
M  V30 27 1 27 28
M  V30 28 1 28 29
M  V30 29 1 28 30
M  V30 30 1 28 31
M  V30 31 2 29 32
M  V30 32 1 29 33
M  V30 33 1 7 9
M  V30 34 1 18 20
M  V30 35 1 25 26
M  V30 END BOND
M  V30 END CTAB
M  END
>  <Molecule ChEMBL ID>
CHEMBL206794

>  <Smiles>
CC(C)(Oc1ccc(OCCCOc2ccc(Oc3ccc(F)cc3)cc2Cl)cc1)C(=O)O

>  <IC50_nM>
981.75

>  <Assay Description>
Agonist activity at PPARgamma

$$$$
CHEMBL179180
Actelion Java MolfileCreator 2.0

  0  0  0  0  0  0              0 V3000
M  V30 BEGIN CTAB
M  V30 COUNTS 33 35 0 0 0
M  V30 BEGIN ATOM
M  V30 1 Cl 6.0621 1.0 0.0 0
M  V30 2 C 6.0621 0.0 0.0 0
M  V30 3 C 5.1961 -0.5 0.0 0
M  V30 4 C 6.9282 -0.4999 0.0 0
M  V30 5 O 4.3301 0.0 0.0 0
M  V30 6 C 5.1961 -1.4999 0.0 0
M  V30 7 C 6.9282 -1.4999 0.0 0
M  V30 8 C 3.4641 -0.5 0.0 0
M  V30 9 C 6.0621 -1.9999 0.0 0
M  V30 10 O 7.7942 -1.9999 0.0 0
M  V30 11 C 2.598 0.0 0.0 0
M  V30 12 C 7.7942 -2.9999 0.0 0
M  V30 13 C 1.732 -0.5 0.0 0
M  V30 14 C 8.6602 -3.4999 0.0 0
M  V30 15 O 0.866 0.0 0.0 0
M  V30 16 F 9.1602 -2.6339 0.0 0
M  V30 17 F 9.5262 -3.9999 0.0 0
M  V30 18 F 8.1602 -4.366 0.0 0
M  V30 19 C 0.0 -0.5 0.0 0
M  V30 20 C -0.866 0.0 0.0 0
M  V30 21 C 0.0 -1.4999 0.0 0
M  V30 22 C -1.732 -0.4999 0.0 0
M  V30 23 C -0.866 -1.9999 0.0 0
M  V30 24 O -2.598 0.0 0.0 0
M  V30 25 C -1.732 -1.4999 0.0 0
M  V30 26 C -3.4641 -0.4999 0.0 0 CFG=1
M  V30 27 C -2.598 -1.9999 0.0 0
M  V30 28 C -3.4641 0.5 0.0 0
M  V30 29 C -3.4641 -1.4999 0.0 0
M  V30 30 C -4.3301 0.0 0.0 0
M  V30 31 O -4.3301 1.0 0.0 0
M  V30 32 O -2.598 1.0 0.0 0
M  V30 33 C -5.1961 -0.4999 0.0 0
M  V30 END ATOM
M  V30 BEGIN BOND
M  V30 1 1 1 2
M  V30 2 2 2 3
M  V30 3 1 2 4
M  V30 4 1 3 5
M  V30 5 1 3 6
M  V30 6 2 4 7
M  V30 7 1 5 8
M  V30 8 2 6 9
M  V30 9 1 7 10
M  V30 10 1 8 11
M  V30 11 1 10 12
M  V30 12 1 11 13
M  V30 13 1 12 14
M  V30 14 1 13 15
M  V30 15 1 14 16
M  V30 16 1 14 17
M  V30 17 1 14 18
M  V30 18 1 15 19
M  V30 19 2 19 20
M  V30 20 1 19 21
M  V30 21 1 20 22
M  V30 22 2 21 23
M  V30 23 1 22 24
M  V30 24 2 22 25
M  V30 25 1 24 26
M  V30 26 1 25 27
M  V30 27 1 26 28 CFG=3
M  V30 28 1 26 29
M  V30 29 1 26 30
M  V30 30 2 28 31
M  V30 31 1 28 32
M  V30 32 1 30 33
M  V30 33 1 7 9
M  V30 34 1 23 25
M  V30 35 1 27 29
M  V30 END BOND
M  V30 BEGIN COLLECTION
M  V30 MDLV30/STEABS ATOMS=(1 26)
M  V30 END COLLECTION
M  V30 END CTAB
M  END
>  <Molecule ChEMBL ID>
CHEMBL179180

>  <Smiles>
CC[C@]1(C(=O)O)CCc2ccc(OCCCOc3ccc(OCC(F)(F)F)cc3Cl)cc2O1

>  <IC50_nM>
990

>  <Assay Description>
In vitro binding affinity against human PPARgamma

$$$$
CHEMBL3695797
Actelion Java MolfileCreator 2.0

  0  0  0  0  0  0              0 V3000
M  V30 BEGIN CTAB
M  V30 COUNTS 38 42 0 0 0
M  V30 BEGIN ATOM
M  V30 1 O 9.0932 -4.5 0.0 0
M  V30 2 N 9.0932 -3.0 0.0 0 CHG=1
M  V30 3 O 10.3923 -2.25 0.0 0 CHG=-1
M  V30 4 C 7.7942 -2.25 0.0 0
M  V30 5 C 7.7942 -0.75 0.0 0
M  V30 6 C 6.4951 -2.9999 0.0 0
M  V30 7 C 6.4951 0.0 0.0 0
M  V30 8 C 5.1961 -2.25 0.0 0
M  V30 9 C 5.1961 -0.75 0.0 0
M  V30 10 C 3.8971 0.0 0.0 0 CFG=1
M  V30 11 N 2.598 -0.75 0.0 0
M  V30 12 C 3.8971 1.5 0.0 0
M  V30 13 C 1.299 0.0 0.0 0
M  V30 14 O 1.299 1.5 0.0 0
M  V30 15 C 0.0 -0.75 0.0 0
M  V30 16 C 0.0 -2.25 0.0 0
M  V30 17 C -1.299 0.0 0.0 0
M  V30 18 C -1.299 -2.9999 0.0 0
M  V30 19 C -2.598 -0.7499 0.0 0
M  V30 20 C -2.598 -2.2499 0.0 0
M  V30 21 C -1.6109 -4.4672 0.0 0
M  V30 22 N -3.7127 -3.2536 0.0 0
M  V30 23 C -3.1026 -4.624 0.0 0
M  V30 24 C -5.18 -2.9418 0.0 0
M  V30 25 C -6.1837 -4.0565 0.0 0
M  V30 26 C -7.6509 -3.7446 0.0 0
M  V30 27 C -5.7201 -5.4831 0.0 0
M  V30 28 C -8.6546 -4.8593 0.0 0
M  V30 29 C -6.7238 -6.5978 0.0 0
M  V30 30 C -8.1911 -6.2859 0.0 0
M  V30 31 C -9.1947 -7.4006 0.0 0
M  V30 32 C -10.662 -7.0888 0.0 0
M  V30 33 C -8.7312 -8.8272 0.0 0
M  V30 34 C -11.6657 -8.2035 0.0 0
M  V30 35 C -9.7349 -9.9419 0.0 0
M  V30 36 C -11.2021 -9.6301 0.0 0
M  V30 37 C -13.1329 -7.8916 0.0 0
M  V30 38 N -14.1366 -9.0063 0.0 0
M  V30 END ATOM
M  V30 BEGIN BOND
M  V30 1 2 1 2
M  V30 2 1 2 3
M  V30 3 1 2 4
M  V30 4 2 4 5
M  V30 5 1 4 6
M  V30 6 1 5 7
M  V30 7 2 6 8
M  V30 8 2 7 9
M  V30 9 1 9 10
M  V30 10 1 10 11
M  V30 11 1 10 12 CFG=1
M  V30 12 1 11 13
M  V30 13 2 13 14
M  V30 14 1 13 15
M  V30 15 2 15 16
M  V30 16 1 15 17
M  V30 17 1 16 18
M  V30 18 2 17 19
M  V30 19 2 18 20
M  V30 20 1 18 21
M  V30 21 1 20 22
M  V30 22 2 21 23
M  V30 23 1 22 24
M  V30 24 1 24 25
M  V30 25 2 25 26
M  V30 26 1 25 27
M  V30 27 1 26 28
M  V30 28 2 27 29
M  V30 29 2 28 30
M  V30 30 1 30 31
M  V30 31 2 31 32
M  V30 32 1 31 33
M  V30 33 1 32 34
M  V30 34 2 33 35
M  V30 35 2 34 36
M  V30 36 1 34 37
M  V30 37 1 37 38
M  V30 38 1 8 9
M  V30 39 1 19 20
M  V30 40 1 22 23
M  V30 41 1 29 30
M  V30 42 1 35 36
M  V30 END BOND
M  V30 BEGIN COLLECTION
M  V30 MDLV30/STEABS ATOMS=(1 10)
M  V30 END COLLECTION
M  V30 END CTAB
M  END
>  <Molecule ChEMBL ID>
CHEMBL3695797

>  <Smiles>
C[C@H](NC(=O)c1ccc2c(ccn2Cc2ccc(-c3cccc(CN)c3)cc2)c1)c1ccc([N+](=O)[O-])cc1

>  <IC50_nM>
1000

>  <Assay Description>
Lanthascreen Competitive Binding Assay: The assay was performed according to manufacturer protocol. A mixture of nM GST-PPARG-LBD, 5 nM Tb-GST-antibody, 5 nM Fluormone Pan-PPAR Green, and serial dilutions of the experimental compound, beginning at 10 ׬M downwards, was added to wells of black 384-well low-volume plates (Greiner) to a total volume of 18 ׬L. All dilutions were made in TR-FRET assay buffer C. DMSO at 2% final concentration was used as a no-ligand control. Experiment was performed in triplicate, and incubated for 2 hours in the dark prior to assay read in Perkin Elmer ViewLux ultra HTS microplate reader. FRET signal was measured by excitation at 340 nm and emission at 520 nm for fluorescein and 490 nm for terbium. Fold change over DMSO was calculated using GraphPad Prism Software (La Jolla, Calif.) by calculating 520 nm/490 nm ratio. Graphs were plotted as fold change of FRET signal for compound treatment over DMSO-only control.

$$$$
CHEMBL522224
Actelion Java MolfileCreator 2.0

  0  0  0  0  0  0              0 V3000
M  V30 BEGIN CTAB
M  V30 COUNTS 32 35 0 0 0
M  V30 BEGIN ATOM
M  V30 1 S 5.1961 3.75 0.0 0
M  V30 2 O 5.9461 5.049 0.0 0
M  V30 3 O 6.6961 3.7499 0.0 0
M  V30 4 N 3.8971 4.5 0.0 0
M  V30 5 C 5.1961 2.25 0.0 0
M  V30 6 C 3.7403 5.9917 0.0 0
M  V30 7 C 2.5267 3.8898 0.0 0
M  V30 8 C 3.8971 1.5 0.0 0
M  V30 9 C 6.4951 1.5 0.0 0
M  V30 10 C 4.744 7.1065 0.0 0
M  V30 11 C 2.2731 6.3036 0.0 0
M  V30 12 C 1.5231 5.0046 0.0 0
M  V30 13 C 3.8971 0.0 0.0 0
M  V30 14 C 6.4951 0.0 0.0 0
M  V30 15 C 4.2804 8.533 0.0 0
M  V30 16 C 6.2112 6.7946 0.0 0
M  V30 17 C 1.8095 7.7302 0.0 0
M  V30 18 C 2.598 -0.75 0.0 0
M  V30 19 C 5.1961 -0.75 0.0 0
M  V30 20 C 2.8132 8.8449 0.0 0
M  V30 21 O 2.598 -2.25 0.0 0
M  V30 22 N 1.299 0.0 0.0 0
M  V30 23 C 0.0 -0.75 0.0 0
M  V30 24 C -1.299 0.0 0.0 0
M  V30 25 C 0.0 -2.25 0.0 0
M  V30 26 C -1.299 1.5 0.0 0
M  V30 27 C -2.598 -0.75 0.0 0
M  V30 28 C -1.299 -3.0 0.0 0
M  V30 29 O 0.0 2.25 0.0 0
M  V30 30 O -2.598 2.25 0.0 0
M  V30 31 C -2.598 -2.25 0.0 0
M  V30 32 C -3.8971 -3.0 0.0 0
M  V30 END ATOM
M  V30 BEGIN BOND
M  V30 1 2 1 2
M  V30 2 2 1 3
M  V30 3 1 1 4
M  V30 4 1 1 5
M  V30 5 1 4 6
M  V30 6 1 4 7
M  V30 7 2 5 8
M  V30 8 1 5 9
M  V30 9 2 6 10
M  V30 10 1 6 11
M  V30 11 2 7 12
M  V30 12 1 8 13
M  V30 13 2 9 14
M  V30 14 1 10 15
M  V30 15 1 10 16
M  V30 16 2 11 17
M  V30 17 1 13 18
M  V30 18 2 13 19
M  V30 19 2 15 20
M  V30 20 2 18 21
M  V30 21 1 18 22
M  V30 22 1 22 23
M  V30 23 2 23 24
M  V30 24 1 23 25
M  V30 25 1 24 26
M  V30 26 1 24 27
M  V30 27 2 25 28
M  V30 28 2 26 29
M  V30 29 1 26 30
M  V30 30 2 27 31
M  V30 31 1 31 32
M  V30 32 1 11 12
M  V30 33 1 14 19
M  V30 34 1 17 20
M  V30 35 1 28 31
M  V30 END BOND
M  V30 END CTAB
M  END
>  <Molecule ChEMBL ID>
CHEMBL522224

>  <Smiles>
Cc1ccc(NC(=O)c2cccc(S(=O)(=O)n3ccc4cccc(C)c43)c2)c(C(=O)O)c1

>  <IC50_nM>
1000

>  <Assay Description>
Displacement of radiolabeled ligand from human PPARgamma by competition-binding assay

$$$$
CHEMBL3695796
Actelion Java MolfileCreator 2.0

  0  0  0  0  0  0              0 V3000
M  V30 BEGIN CTAB
M  V30 COUNTS 37 41 0 0 0
M  V30 BEGIN ATOM
M  V30 1 O 6.0621 -3.0 0.0 0
M  V30 2 N 6.0621 -1.9999 0.0 0 CHG=1
M  V30 3 O 6.9282 -1.5 0.0 0 CHG=-1
M  V30 4 C 5.1961 -1.4999 0.0 0
M  V30 5 C 5.1961 -0.5 0.0 0
M  V30 6 C 4.3301 -1.9999 0.0 0
M  V30 7 C 4.3301 0.0 0.0 0
M  V30 8 C 3.4641 -1.5 0.0 0
M  V30 9 C 3.4641 -0.5 0.0 0
M  V30 10 C 2.598 0.0 0.0 0 CFG=1
M  V30 11 N 1.732 -0.5 0.0 0
M  V30 12 C 2.598 1.0 0.0 0
M  V30 13 C 0.866 0.0 0.0 0
M  V30 14 O 0.866 1.0 0.0 0
M  V30 15 C 0.0 -0.5 0.0 0
M  V30 16 C 0.0 -1.4999 0.0 0
M  V30 17 C -0.866 0.0 0.0 0
M  V30 18 C -0.866 -1.9999 0.0 0
M  V30 19 C -1.732 -0.4999 0.0 0
M  V30 20 C -1.732 -1.4999 0.0 0
M  V30 21 C -1.0739 -2.9781 0.0 0
M  V30 22 N -2.4751 -2.1691 0.0 0
M  V30 23 C -2.0684 -3.0826 0.0 0
M  V30 24 C -3.4533 -1.9612 0.0 0
M  V30 25 C -4.1224 -2.7043 0.0 0
M  V30 26 C -5.1006 -2.4964 0.0 0
M  V30 27 C -3.8134 -3.6554 0.0 0
M  V30 28 C -5.7697 -3.2395 0.0 0
M  V30 29 C -4.4825 -4.3985 0.0 0
M  V30 30 C -5.4607 -4.1906 0.0 0
M  V30 31 C -6.1298 -4.9337 0.0 0
M  V30 32 C -7.108 -4.7258 0.0 0
M  V30 33 C -5.8208 -5.8848 0.0 0
M  V30 34 C -7.7771 -5.469 0.0 0
M  V30 35 C -6.4899 -6.6279 0.0 0
M  V30 36 N -8.7552 -5.2611 0.0 0
M  V30 37 C -7.4681 -6.42 0.0 0
M  V30 END ATOM
M  V30 BEGIN BOND
M  V30 1 2 1 2
M  V30 2 1 2 3
M  V30 3 1 2 4
M  V30 4 2 4 5
M  V30 5 1 4 6
M  V30 6 1 5 7
M  V30 7 2 6 8
M  V30 8 2 7 9
M  V30 9 1 9 10
M  V30 10 1 10 11
M  V30 11 1 10 12 CFG=1
M  V30 12 1 11 13
M  V30 13 2 13 14
M  V30 14 1 13 15
M  V30 15 2 15 16
M  V30 16 1 15 17
M  V30 17 1 16 18
M  V30 18 2 17 19
M  V30 19 2 18 20
M  V30 20 1 18 21
M  V30 21 1 20 22
M  V30 22 2 21 23
M  V30 23 1 22 24
M  V30 24 1 24 25
M  V30 25 2 25 26
M  V30 26 1 25 27
M  V30 27 1 26 28
M  V30 28 2 27 29
M  V30 29 2 28 30
M  V30 30 1 30 31
M  V30 31 2 31 32
M  V30 32 1 31 33
M  V30 33 1 32 34
M  V30 34 2 33 35
M  V30 35 1 34 36
M  V30 36 2 34 37
M  V30 37 1 8 9
M  V30 38 1 19 20
M  V30 39 1 22 23
M  V30 40 1 29 30
M  V30 41 1 35 37
M  V30 END BOND
M  V30 BEGIN COLLECTION
M  V30 MDLV30/STEABS ATOMS=(1 10)
M  V30 END COLLECTION
M  V30 END CTAB
M  END
>  <Molecule ChEMBL ID>
CHEMBL3695796

>  <Smiles>
C[C@H](NC(=O)c1ccc2c(ccn2Cc2ccc(-c3cccc(N)c3)cc2)c1)c1ccc([N+](=O)[O-])cc1

>  <IC50_nM>
1000

>  <Assay Description>
Lanthascreen Competitive Binding Assay: The assay was performed according to manufacturer protocol. A mixture of nM GST-PPARG-LBD, 5 nM Tb-GST-antibody, 5 nM Fluormone Pan-PPAR Green, and serial dilutions of the experimental compound, beginning at 10 ׬M downwards, was added to wells of black 384-well low-volume plates (Greiner) to a total volume of 18 ׬L. All dilutions were made in TR-FRET assay buffer C. DMSO at 2% final concentration was used as a no-ligand control. Experiment was performed in triplicate, and incubated for 2 hours in the dark prior to assay read in Perkin Elmer ViewLux ultra HTS microplate reader. FRET signal was measured by excitation at 340 nm and emission at 520 nm for fluorescein and 490 nm for terbium. Fold change over DMSO was calculated using GraphPad Prism Software (La Jolla, Calif.) by calculating 520 nm/490 nm ratio. Graphs were plotted as fold change of FRET signal for compound treatment over DMSO-only control.

$$$$
CHEMBL3678100
Actelion Java MolfileCreator 2.0

  0  0  0  0  0  0              0 V3000
M  V30 BEGIN CTAB
M  V30 COUNTS 30 33 0 0 0
M  V30 BEGIN ATOM
M  V30 1 Cl 7.5801 5.8563 0.0 0
M  V30 2 C 8.2493 5.1132 0.0 0
M  V30 3 C 7.9402 4.1621 0.0 0
M  V30 4 C 9.2274 5.3211 0.0 0
M  V30 5 C 8.6094 3.419 0.0 0
M  V30 6 C 9.8965 4.578 0.0 0
M  V30 7 C 9.5875 3.6269 0.0 0
M  V30 8 C 8.3003 2.4679 0.0 0
M  V30 9 C 7.3222 2.26 0.0 0
M  V30 10 N 7.0132 1.309 0.0 0
M  V30 11 C 6.0621 0.9999 0.0 0
M  V30 12 C 7.601 0.5 0.0 0
M  V30 13 C 6.0621 0.0 0.0 0
M  V30 14 C 5.1961 1.4999 0.0 0
M  V30 15 C 7.0132 -0.309 0.0 0
M  V30 16 C 5.1961 -0.5 0.0 0
M  V30 17 C 4.3301 0.9999 0.0 0
M  V30 18 C 4.3301 0.0 0.0 0
M  V30 19 C 3.4641 -0.5 0.0 0
M  V30 20 O 3.4641 -1.5 0.0 0
M  V30 21 N 2.598 0.0 0.0 0
M  V30 22 C 1.732 -0.5 0.0 0 CFG=2
M  V30 23 C 1.732 -1.5 0.0 0
M  V30 24 C 0.866 0.0 0.0 0
M  V30 25 C 0.866 -1.9999 0.0 0
M  V30 26 C 2.598 -2.0 0.0 0
M  V30 27 C 0.0 -0.5 0.0 0
M  V30 28 C 0.866 -2.9999 0.0 0
M  V30 29 C 2.598 -3.0 0.0 0
M  V30 30 C 1.732 -3.5 0.0 0
M  V30 END ATOM
M  V30 BEGIN BOND
M  V30 1 1 1 2
M  V30 2 2 2 3
M  V30 3 1 2 4
M  V30 4 1 3 5
M  V30 5 2 4 6
M  V30 6 2 5 7
M  V30 7 1 5 8
M  V30 8 1 8 9
M  V30 9 1 9 10
M  V30 10 1 10 11
M  V30 11 1 10 12
M  V30 12 2 11 13
M  V30 13 1 11 14
M  V30 14 2 12 15
M  V30 15 1 13 16
M  V30 16 2 14 17
M  V30 17 2 16 18
M  V30 18 1 18 19
M  V30 19 2 19 20
M  V30 20 1 19 21
M  V30 21 1 22 21 CFG=3
M  V30 22 1 22 23
M  V30 23 1 22 24
M  V30 24 2 23 25
M  V30 25 1 23 26
M  V30 26 1 24 27
M  V30 27 1 25 28
M  V30 28 2 26 29
M  V30 29 2 28 30
M  V30 30 1 6 7
M  V30 31 1 13 15
M  V30 32 1 17 18
M  V30 33 1 29 30
M  V30 END BOND
M  V30 BEGIN COLLECTION
M  V30 MDLV30/STERAC1 ATOMS=(1 22)
M  V30 END COLLECTION
M  V30 END CTAB
M  END
>  <Molecule ChEMBL ID>
CHEMBL3678100

>  <Smiles>
CCC(NC(=O)c1ccc2c(ccn2CCc2cccc(Cl)c2)c1)c1ccccc1

>  <IC50_nM>
1000

>  <Assay Description>
Lanthascreen Competitive Binding Assay: The assay was performed according to manufacturer protocol. A mixture of 5 nM GST-PPARG-LBD, 5 nM Tb-GST-antibody, 5 nM Fluormone Pan- PPAR Green, and serial dilutions of the experimental compound, beginning at 10 ׬� downwards, was added to wells of black 384-well low- volume plates (Greiner) to a total volume of 18 xL. All dilutions were made in TR-FRET assay buffer C. DMSO at 2% final concentration was used as a no-ligand control. Experiment was performed in triplicate, and incubated for 2 hours in the dark prior to assay read in Perkin Elmer ViewLux ultra HTS microplate reader. FRET signal was measured by excitation at 340 nm and emission at 520 nm for fluorescein and 490 nm for terbium.

$$$$
CHEMBL3695823
Actelion Java MolfileCreator 2.0

  0  0  0  0  0  0              0 V3000
M  V30 BEGIN CTAB
M  V30 COUNTS 38 42 0 0 0
M  V30 BEGIN ATOM
M  V30 1 O 11.1837 5.7369 0.0 0
M  V30 2 C 10.8747 4.7859 0.0 0
M  V30 3 O 9.8965 4.578 0.0 0
M  V30 4 C 11.5438 4.0427 0.0 0
M  V30 5 C 11.2348 3.0917 0.0 0
M  V30 6 C 12.522 4.2506 0.0 0
M  V30 7 C 10.2566 2.8838 0.0 0
M  V30 8 C 11.9039 2.3485 0.0 0
M  V30 9 C 13.1911 3.5075 0.0 0
M  V30 10 C 9.5875 3.6269 0.0 0
M  V30 11 C 9.9476 1.9327 0.0 0
M  V30 12 C 12.8821 2.5564 0.0 0
M  V30 13 C 8.6094 3.419 0.0 0
M  V30 14 C 8.9695 1.7248 0.0 0
M  V30 15 C 8.3003 2.4679 0.0 0
M  V30 16 C 7.3222 2.26 0.0 0
M  V30 17 N 7.0132 1.309 0.0 0
M  V30 18 C 6.0621 0.9999 0.0 0
M  V30 19 C 7.601 0.5 0.0 0
M  V30 20 C 6.0621 0.0 0.0 0
M  V30 21 C 5.1961 1.4999 0.0 0
M  V30 22 C 7.0132 -0.309 0.0 0
M  V30 23 C 8.601 0.5 0.0 0
M  V30 24 C 5.1961 -0.5 0.0 0
M  V30 25 C 4.3301 0.9999 0.0 0
M  V30 26 C 7.3222 -1.26 0.0 0
M  V30 27 C 4.3301 0.0 0.0 0
M  V30 28 C 3.4641 -0.5 0.0 0
M  V30 29 O 3.4641 -1.5 0.0 0
M  V30 30 N 2.598 0.0 0.0 0
M  V30 31 C 1.732 -0.5 0.0 0
M  V30 32 C 0.866 0.0 0.0 0
M  V30 33 N 0.0 -0.5 0.0 0
M  V30 34 C -0.866 0.0 0.0 0
M  V30 35 C 0.0 -1.4999 0.0 0
M  V30 36 C -1.732 -0.4999 0.0 0
M  V30 37 C -0.866 -1.9999 0.0 0
M  V30 38 O -1.732 -1.4999 0.0 0
M  V30 END ATOM
M  V30 BEGIN BOND
M  V30 1 2 1 2
M  V30 2 1 2 3
M  V30 3 1 2 4
M  V30 4 2 4 5
M  V30 5 1 4 6
M  V30 6 1 5 7
M  V30 7 1 5 8
M  V30 8 2 6 9
M  V30 9 2 7 10
M  V30 10 1 7 11
M  V30 11 2 8 12
M  V30 12 1 10 13
M  V30 13 2 11 14
M  V30 14 2 13 15
M  V30 15 1 15 16
M  V30 16 1 16 17
M  V30 17 1 17 18
M  V30 18 1 17 19
M  V30 19 2 18 20
M  V30 20 1 18 21
M  V30 21 2 19 22
M  V30 22 1 19 23
M  V30 23 1 20 24
M  V30 24 2 21 25
M  V30 25 1 22 26
M  V30 26 2 24 27
M  V30 27 1 27 28
M  V30 28 2 28 29
M  V30 29 1 28 30
M  V30 30 1 30 31
M  V30 31 1 31 32
M  V30 32 1 32 33
M  V30 33 1 33 34
M  V30 34 1 33 35
M  V30 35 1 34 36
M  V30 36 1 35 37
M  V30 37 1 36 38
M  V30 38 1 9 12
M  V30 39 1 14 15
M  V30 40 1 20 22
M  V30 41 1 25 27
M  V30 42 1 37 38
M  V30 END BOND
M  V30 END CTAB
M  END
>  <Molecule ChEMBL ID>
CHEMBL3695823

>  <Smiles>
Cc1c(C)n(Cc2ccc(-c3ccccc3C(=O)O)cc2)c2ccc(C(=O)NCCN3CCOCC3)cc12

>  <IC50_nM>
1000

>  <Assay Description>
Lanthascreen Competitive Binding Assay: The assay was performed according to manufacturer protocol. A mixture of nM GST-PPARG-LBD, 5 nM Tb-GST-antibody, 5 nM Fluormone Pan-PPAR Green, and serial dilutions of the experimental compound, beginning at 10 ׬M downwards, was added to wells of black 384-well low-volume plates (Greiner) to a total volume of 18 ׬L. All dilutions were made in TR-FRET assay buffer C. DMSO at 2% final concentration was used as a no-ligand control. Experiment was performed in triplicate, and incubated for 2 hours in the dark prior to assay read in Perkin Elmer ViewLux ultra HTS microplate reader. FRET signal was measured by excitation at 340 nm and emission at 520 nm for fluorescein and 490 nm for terbium. Fold change over DMSO was calculated using GraphPad Prism Software (La Jolla, Calif.) by calculating 520 nm/490 nm ratio. Graphs were plotted as fold change of FRET signal for compound treatment over DMSO-only control.

$$$$
CHEMBL230565
Actelion Java MolfileCreator 2.0

  0  0  0  0  0  0              0 V3000
M  V30 BEGIN CTAB
M  V30 COUNTS 29 32 0 0 0
M  V30 BEGIN ATOM
M  V30 1 O 10.3923 -6.7499 0.0 0
M  V30 2 C 10.3923 -5.2499 0.0 0
M  V30 3 N 11.6913 -4.5 0.0 0
M  V30 4 N 9.0932 -4.5 0.0 0
M  V30 5 C 11.6913 -2.9999 0.0 0
M  V30 6 C 9.0932 -3.0 0.0 0 CFG=2
M  V30 7 C 10.3923 -2.2499 0.0 0
M  V30 8 C 12.9903 -2.2499 0.0 0
M  V30 9 C 7.7942 -2.2499 0.0 0
M  V30 10 C 10.3923 -0.7499 0.0 0
M  V30 11 C 7.7942 -0.75 0.0 0
M  V30 12 C 6.4951 -2.9999 0.0 0
M  V30 13 O 11.6913 0.0 0.0 0
M  V30 14 O 9.0932 0.0 0.0 0
M  V30 15 C 6.4951 0.0 0.0 0
M  V30 16 C 5.1961 -2.25 0.0 0
M  V30 17 C 5.1961 -0.75 0.0 0
M  V30 18 O 3.8971 0.0 0.0 0
M  V30 19 C 2.598 -0.75 0.0 0
M  V30 20 C 1.299 0.0 0.0 0
M  V30 21 N 0.0 -0.75 0.0 0
M  V30 22 C -1.3703 -0.1398 0.0 0
M  V30 23 C -0.1567 -2.2417 0.0 0
M  V30 24 N -1.8338 1.2866 0.0 0
M  V30 25 C -2.374 -1.2546 0.0 0
M  V30 26 C -1.624 -2.5536 0.0 0
M  V30 27 C -3.301 1.5985 0.0 0
M  V30 28 C -3.8412 -0.9427 0.0 0
M  V30 29 C -4.3047 0.4838 0.0 0
M  V30 END ATOM
M  V30 BEGIN BOND
M  V30 1 2 1 2
M  V30 2 1 2 3
M  V30 3 1 2 4
M  V30 4 1 3 5
M  V30 5 1 4 6
M  V30 6 2 5 7
M  V30 7 1 5 8
M  V30 8 1 6 9 CFG=1
M  V30 9 1 7 10
M  V30 10 2 9 11
M  V30 11 1 9 12
M  V30 12 2 10 13
M  V30 13 1 10 14
M  V30 14 1 11 15
M  V30 15 2 12 16
M  V30 16 2 15 17
M  V30 17 1 17 18
M  V30 18 1 18 19
M  V30 19 1 19 20
M  V30 20 1 20 21
M  V30 21 1 21 22
M  V30 22 1 21 23
M  V30 23 2 22 24
M  V30 24 1 22 25
M  V30 25 2 23 26
M  V30 26 1 24 27
M  V30 27 2 25 28
M  V30 28 2 27 29
M  V30 29 1 6 7
M  V30 30 1 16 17
M  V30 31 1 25 26
M  V30 32 1 28 29
M  V30 END BOND
M  V30 BEGIN COLLECTION
M  V30 MDLV30/STERAC1 ATOMS=(1 6)
M  V30 END COLLECTION
M  V30 END CTAB
M  END
>  <Molecule ChEMBL ID>
CHEMBL230565

>  <Smiles>
CC1=C(C(=O)O)C(c2ccc(OCCn3ccc4cccnc43)cc2)NC(=O)N1

>  <IC50_nM>
1000

>  <Assay Description>
Displacement of [3H]rosiglitazone from PPAR gamma

$$$$
CHEMBL398185
Actelion Java MolfileCreator 2.0

  0  0  0  0  0  0              0 V3000
M  V30 BEGIN CTAB
M  V30 COUNTS 48 52 0 0 0
M  V30 BEGIN ATOM
M  V30 1 O 7.7942 -2.0 0.0 0
M  V30 2 C 8.6602 -1.4999 0.0 0
M  V30 3 C 8.6602 -0.4999 0.0 0
M  V30 4 C 9.5262 -1.9999 0.0 0
M  V30 5 C 7.7942 0.0 0.0 0
M  V30 6 C 9.5262 0.0 0.0 0
M  V30 7 C 10.3923 -1.4999 0.0 0
M  V30 8 C 9.5262 -2.9999 0.0 0
M  V30 9 N 6.9282 -0.5 0.0 0
M  V30 10 C 7.7942 1.0 0.0 0
M  V30 11 C 9.5262 1.0 0.0 0
M  V30 12 C 11.2583 -1.9999 0.0 0
M  V30 13 C 10.3923 -3.4999 0.0 0
M  V30 14 C 6.0621 0.0 0.0 0 CFG=2
M  V30 15 C 8.6602 1.5 0.0 0
M  V30 16 C 11.2583 -2.9999 0.0 0
M  V30 17 C 5.1961 -0.5 0.0 0
M  V30 18 C 6.0621 1.0 0.0 0
M  V30 19 N 4.3301 0.0 0.0 0
M  V30 20 C 5.1961 1.5 0.0 0
M  V30 21 C 3.4641 -0.5 0.0 0
M  V30 22 C 5.1961 2.5 0.0 0
M  V30 23 C 4.3301 1.0 0.0 0
M  V30 24 O 3.4641 -1.5 0.0 0
M  V30 25 C 2.598 0.0 0.0 0
M  V30 26 C 4.3301 3.0 0.0 0
M  V30 27 C 3.4641 1.5 0.0 0
M  V30 28 C 1.732 -0.5 0.0 0
M  V30 29 C 3.4641 2.5 0.0 0
M  V30 30 C 0.866 0.0 0.0 0
M  V30 31 C 1.732 -1.5 0.0 0
M  V30 32 O 2.598 3.0 0.0 0
M  V30 33 O 0.866 1.0 0.0 0
M  V30 34 O 0.0 -0.5 0.0 0
M  V30 35 C 1.732 2.5 0.0 0
M  V30 36 C 0.866 3.0 0.0 0
M  V30 37 C 0.0 2.5 0.0 0
M  V30 38 N -0.1045 1.5054 0.0 0
M  V30 39 C -0.9135 2.9067 0.0 0
M  V30 40 C -1.0826 1.2975 0.0 0
M  V30 41 O -1.5826 2.1635 0.0 0
M  V30 42 C -1.1214 3.8848 0.0 0
M  V30 43 C -1.4894 0.384 0.0 0
M  V30 44 C -0.9016 -0.4249 0.0 0
M  V30 45 C -2.4839 0.2794 0.0 0
M  V30 46 C -1.3083 -1.3385 0.0 0
M  V30 47 C -2.8906 -0.634 0.0 0
M  V30 48 C -2.3028 -1.443 0.0 0
M  V30 END ATOM
M  V30 BEGIN BOND
M  V30 1 2 1 2
M  V30 2 1 2 3
M  V30 3 1 2 4
M  V30 4 2 3 5
M  V30 5 1 3 6
M  V30 6 2 4 7
M  V30 7 1 4 8
M  V30 8 1 5 9
M  V30 9 1 5 10
M  V30 10 2 6 11
M  V30 11 1 7 12
M  V30 12 2 8 13
M  V30 13 1 14 9 CFG=3
M  V30 14 2 10 15
M  V30 15 2 12 16
M  V30 16 1 14 17
M  V30 17 1 14 18
M  V30 18 1 17 19
M  V30 19 1 18 20
M  V30 20 1 19 21
M  V30 21 2 20 22
M  V30 22 1 20 23
M  V30 23 2 21 24
M  V30 24 1 21 25
M  V30 25 1 22 26
M  V30 26 2 23 27
M  V30 27 1 25 28
M  V30 28 2 26 29
M  V30 29 1 28 30
M  V30 30 1 28 31
M  V30 31 1 29 32
M  V30 32 2 30 33
M  V30 33 1 30 34
M  V30 34 1 32 35
M  V30 35 1 35 36
M  V30 36 1 36 37
M  V30 37 1 37 38
M  V30 38 2 37 39
M  V30 39 2 38 40
M  V30 40 1 39 41
M  V30 41 1 39 42
M  V30 42 1 40 43
M  V30 43 2 43 44
M  V30 44 1 43 45
M  V30 45 1 44 46
M  V30 46 2 45 47
M  V30 47 2 46 48
M  V30 48 1 11 15
M  V30 49 1 13 16
M  V30 50 1 27 29
M  V30 51 1 40 41
M  V30 52 1 47 48
M  V30 END BOND
M  V30 BEGIN COLLECTION
M  V30 MDLV30/STEABS ATOMS=(1 14)
M  V30 END COLLECTION
M  V30 END CTAB
M  END
>  <Molecule ChEMBL ID>
CHEMBL398185

>  <Smiles>
Cc1oc(-c2ccccc2)nc1CCOc1ccc(C[C@@H](CNC(=O)CC(C)C(=O)O)Nc2ccccc2C(=O)c2ccccc2)cc1

>  <IC50_nM>
1000

>  <Assay Description>
Inhibition of BRL-49653 stimulated human PPARgamma transactivation in CV-1 cells by GAL4 reporter assay

$$$$
CHEMBL522224
Actelion Java MolfileCreator 2.0

  0  0  0  0  0  0              0 V3000
M  V30 BEGIN CTAB
M  V30 COUNTS 32 35 0 0 0
M  V30 BEGIN ATOM
M  V30 1 S 5.1961 3.75 0.0 0
M  V30 2 O 5.9461 5.049 0.0 0
M  V30 3 O 6.6961 3.7499 0.0 0
M  V30 4 N 3.8971 4.5 0.0 0
M  V30 5 C 5.1961 2.25 0.0 0
M  V30 6 C 3.7403 5.9917 0.0 0
M  V30 7 C 2.5267 3.8898 0.0 0
M  V30 8 C 3.8971 1.5 0.0 0
M  V30 9 C 6.4951 1.5 0.0 0
M  V30 10 C 4.744 7.1065 0.0 0
M  V30 11 C 2.2731 6.3036 0.0 0
M  V30 12 C 1.5231 5.0046 0.0 0
M  V30 13 C 3.8971 0.0 0.0 0
M  V30 14 C 6.4951 0.0 0.0 0
M  V30 15 C 4.2804 8.533 0.0 0
M  V30 16 C 6.2112 6.7946 0.0 0
M  V30 17 C 1.8095 7.7302 0.0 0
M  V30 18 C 2.598 -0.75 0.0 0
M  V30 19 C 5.1961 -0.75 0.0 0
M  V30 20 C 2.8132 8.8449 0.0 0
M  V30 21 O 2.598 -2.25 0.0 0
M  V30 22 N 1.299 0.0 0.0 0
M  V30 23 C 0.0 -0.75 0.0 0
M  V30 24 C -1.299 0.0 0.0 0
M  V30 25 C 0.0 -2.25 0.0 0
M  V30 26 C -1.299 1.5 0.0 0
M  V30 27 C -2.598 -0.75 0.0 0
M  V30 28 C -1.299 -3.0 0.0 0
M  V30 29 O 0.0 2.25 0.0 0
M  V30 30 O -2.598 2.25 0.0 0
M  V30 31 C -2.598 -2.25 0.0 0
M  V30 32 C -3.8971 -3.0 0.0 0
M  V30 END ATOM
M  V30 BEGIN BOND
M  V30 1 2 1 2
M  V30 2 2 1 3
M  V30 3 1 1 4
M  V30 4 1 1 5
M  V30 5 1 4 6
M  V30 6 1 4 7
M  V30 7 2 5 8
M  V30 8 1 5 9
M  V30 9 2 6 10
M  V30 10 1 6 11
M  V30 11 2 7 12
M  V30 12 1 8 13
M  V30 13 2 9 14
M  V30 14 1 10 15
M  V30 15 1 10 16
M  V30 16 2 11 17
M  V30 17 1 13 18
M  V30 18 2 13 19
M  V30 19 2 15 20
M  V30 20 2 18 21
M  V30 21 1 18 22
M  V30 22 1 22 23
M  V30 23 2 23 24
M  V30 24 1 23 25
M  V30 25 1 24 26
M  V30 26 1 24 27
M  V30 27 2 25 28
M  V30 28 2 26 29
M  V30 29 1 26 30
M  V30 30 2 27 31
M  V30 31 1 31 32
M  V30 32 1 11 12
M  V30 33 1 14 19
M  V30 34 1 17 20
M  V30 35 1 28 31
M  V30 END BOND
M  V30 END CTAB
M  END
>  <Molecule ChEMBL ID>
CHEMBL522224

>  <Smiles>
Cc1ccc(NC(=O)c2cccc(S(=O)(=O)n3ccc4cccc(C)c43)c2)c(C(=O)O)c1

>  <IC50_nM>
1000

>  <Assay Description>
Agonist activity at PPARgamma

$$$$
CHEMBL3699435
Actelion Java MolfileCreator 2.0

  0  0  0  0  0  0              0 V3000
M  V30 BEGIN CTAB
M  V30 COUNTS 49 53 0 0 0
M  V30 BEGIN ATOM
M  V30 1 O 4.3301 0.0 0.0 0
M  V30 2 C 5.1961 -0.5 0.0 0
M  V30 3 N 6.0621 0.0 0.0 0
M  V30 4 C 5.1961 -1.4999 0.0 0
M  V30 5 C 6.9282 -0.5 0.0 0
M  V30 6 C 4.3301 -1.9999 0.0 0
M  V30 7 C 6.0621 -2.0 0.0 0
M  V30 8 C 7.7942 0.0 0.0 0 CFG=1
M  V30 9 C 3.4641 -1.4999 0.0 0
M  V30 10 C 4.3301 -2.9999 0.0 0
M  V30 11 C 6.0621 -3.0 0.0 0
M  V30 12 O 7.7942 0.9999 0.0 0
M  V30 13 C 8.6602 -0.5 0.0 0
M  V30 14 C 3.4641 -0.4999 0.0 0
M  V30 15 C 2.598 -1.9999 0.0 0
M  V30 16 C 5.1961 -3.5 0.0 0
M  V30 17 O 8.6602 -1.5 0.0 0
M  V30 18 N 9.5262 0.0 0.0 0
M  V30 19 C 2.598 0.0 0.0 0
M  V30 20 C 1.732 -1.4999 0.0 0
M  V30 21 C 9.5262 0.9999 0.0 0
M  V30 22 C 10.3923 -0.5 0.0 0
M  V30 23 C 1.732 -0.4999 0.0 0
M  V30 24 C 0.866 0.0 0.0 0
M  V30 25 N 0.0 -0.4999 0.0 0
M  V30 26 C -0.9135 -0.0932 0.0 0
M  V30 27 C -0.1045 -1.4945 0.0 0
M  V30 28 C -1.5826 -0.8364 0.0 0
M  V30 29 C -1.2225 0.8577 0.0 0
M  V30 30 C -1.0826 -1.7024 0.0 0
M  V30 31 C 0.6386 -2.1636 0.0 0
M  V30 32 C -2.5608 -0.6284 0.0 0
M  V30 33 C -2.2007 1.0657 0.0 0
M  V30 34 C -1.4894 -2.6159 0.0 0
M  V30 35 C -2.8698 0.3225 0.0 0
M  V30 36 C -3.8479 0.5304 0.0 0
M  V30 37 O -4.157 1.4815 0.0 0
M  V30 38 N -4.5171 -0.2126 0.0 0
M  V30 39 C -5.4952 -0.0047 0.0 0 CFG=2
M  V30 40 C -5.8042 0.9462 0.0 0
M  V30 41 C -6.1643 -0.7479 0.0 0
M  V30 42 C -5.1351 1.6894 0.0 0
M  V30 43 C -6.7824 1.1542 0.0 0
M  V30 44 C -5.4441 2.6404 0.0 0
M  V30 45 C -7.0914 2.1052 0.0 0
M  V30 46 C -6.4223 2.8484 0.0 0
M  V30 47 C -4.775 3.3836 0.0 0
M  V30 48 C -3.7968 3.1757 0.0 0
M  V30 49 C -5.084 4.3346 0.0 0
M  V30 END ATOM
M  V30 BEGIN BOND
M  V30 1 2 1 2
M  V30 2 1 2 3
M  V30 3 1 2 4
M  V30 4 1 3 5
M  V30 5 2 4 6
M  V30 6 1 4 7
M  V30 7 1 5 8
M  V30 8 1 6 9
M  V30 9 1 6 10
M  V30 10 2 7 11
M  V30 11 1 8 12 CFG=1
M  V30 12 1 8 13
M  V30 13 2 9 14
M  V30 14 1 9 15
M  V30 15 2 10 16
M  V30 16 2 13 17
M  V30 17 1 13 18
M  V30 18 1 14 19
M  V30 19 2 15 20
M  V30 20 1 18 21
M  V30 21 1 18 22
M  V30 22 2 19 23
M  V30 23 1 23 24
M  V30 24 1 24 25
M  V30 25 1 25 26
M  V30 26 1 25 27
M  V30 27 2 26 28
M  V30 28 1 26 29
M  V30 29 2 27 30
M  V30 30 1 27 31
M  V30 31 1 28 32
M  V30 32 2 29 33
M  V30 33 1 30 34
M  V30 34 2 32 35
M  V30 35 1 35 36
M  V30 36 2 36 37
M  V30 37 1 36 38
M  V30 38 1 38 39
M  V30 39 1 39 40
M  V30 40 1 39 41 CFG=1
M  V30 41 2 40 42
M  V30 42 1 40 43
M  V30 43 1 42 44
M  V30 44 2 43 45
M  V30 45 2 44 46
M  V30 46 1 44 47
M  V30 47 1 47 48
M  V30 48 1 47 49
M  V30 49 1 11 16
M  V30 50 1 20 23
M  V30 51 1 28 30
M  V30 52 1 33 35
M  V30 53 1 45 46
M  V30 END BOND
M  V30 BEGIN COLLECTION
M  V30 MDLV30/STEABS ATOMS=(2 8 39)
M  V30 END COLLECTION
M  V30 END CTAB
M  END
>  <Molecule ChEMBL ID>
CHEMBL3699435

>  <Smiles>
Cc1c(C)n(Cc2ccc(-c3ccccc3C(=O)NC[C@@H](O)C(=O)N(C)C)cc2)c2ccc(C(=O)N[C@@H](C)c3cccc(C(C)C)c3)cc12

>  <IC50_nM>
1000

>  <Assay Description>
Lanthascreen Competitive Binding Assay: The assay was performed according to manufacturer protocol. A mixture of nM GST-PPARG-LBD, 5 nM Tb-GST-antibody, 5 nM Fluormone Pan-PPAR Green, and serial dilutions of the experimental compound, beginning at 10 ׬M downwards, was added to wells of black 384-well low-volume plates (Greiner) to a total volume of 18 ׬L. All dilutions were made in TR-FRET assay buffer C. DMSO at 2% final concentration was used as a no-ligand control. Experiment was performed in triplicate, and incubated for 2 hours in the dark prior to assay read in Perkin Elmer ViewLux ultra HTS microplate reader. FRET signal was measured by excitation at 340 nm and emission at 520 nm for fluorescein and 490 nm for terbium. Fold change over DMSO was calculated using GraphPad Prism Software (La Jolla, Calif.) by calculating 520 nm/490 nm ratio. Graphs were plotted as fold change of FRET signal for compound treatment over DMSO-only control.

$$$$
CHEMBL510698
Actelion Java MolfileCreator 2.0

  0  0  0  0  0  0              0 V3000
M  V30 BEGIN CTAB
M  V30 COUNTS 19 20 0 0 0
M  V30 BEGIN ATOM
M  V30 1 Cl 1.732 1.4999 0.0 0
M  V30 2 C 2.598 1.0 0.0 0
M  V30 3 C 2.598 0.0 0.0 0
M  V30 4 C 3.4641 1.4999 0.0 0
M  V30 5 C 1.732 -0.5 0.0 0
M  V30 6 C 3.4641 -0.5 0.0 0
M  V30 7 C 4.3301 1.0 0.0 0
M  V30 8 O 1.732 -1.5 0.0 0
M  V30 9 N 0.866 0.0 0.0 0
M  V30 10 C 4.3301 0.0 0.0 0
M  V30 11 C 0.0 -0.5 0.0 0
M  V30 12 N 5.1961 -0.5 0.0 0 CHG=1
M  V30 13 C -0.866 0.0 0.0 0
M  V30 14 C 0.0 -1.4999 0.0 0
M  V30 15 O 5.1961 -1.5 0.0 0
M  V30 16 O 6.0621 0.0 0.0 0 CHG=-1
M  V30 17 C -1.732 -0.4999 0.0 0
M  V30 18 C -0.866 -1.9999 0.0 0
M  V30 19 N -1.732 -1.4999 0.0 0
M  V30 END ATOM
M  V30 BEGIN BOND
M  V30 1 1 1 2
M  V30 2 2 2 3
M  V30 3 1 2 4
M  V30 4 1 3 5
M  V30 5 1 3 6
M  V30 6 2 4 7
M  V30 7 2 5 8
M  V30 8 1 5 9
M  V30 9 2 6 10
M  V30 10 1 9 11
M  V30 11 1 10 12
M  V30 12 2 11 13
M  V30 13 1 11 14
M  V30 14 2 12 15
M  V30 15 1 12 16
M  V30 16 1 13 17
M  V30 17 2 14 18
M  V30 18 2 17 19
M  V30 19 1 7 10
M  V30 20 1 18 19
M  V30 END BOND
M  V30 END CTAB
M  END
>  <Molecule ChEMBL ID>
CHEMBL510698

>  <Smiles>
O=C(Nc1ccncc1)c1cc([N+](=O)[O-])ccc1Cl

>  <IC50_nM>
1000

>  <Assay Description>
Antagonist activity at human PPARgamma receptor expressed in Saccharomyces cerevisiae AH109 co-transfected with mouse CBP assessed as inhibition of rosiglitazone-induced LBD-CBP interaction by alpha-galactosidase based yeast two hybrid assay

$$$$
CHEMBL3699392
Actelion Java MolfileCreator 2.0

  0  0  0  0  0  0              0 V3000
M  V30 BEGIN CTAB
M  V30 COUNTS 42 46 0 0 0
M  V30 BEGIN ATOM
M  V30 1 S 10.8811 -3.7748 0.0 0
M  V30 2 O 11.8321 -4.0838 0.0 0
M  V30 3 O 9.93 -3.4658 0.0 0
M  V30 4 N 11.1901 -2.8237 0.0 0
M  V30 5 C 10.5721 -4.7258 0.0 0
M  V30 6 C 9.5939 -4.9337 0.0 0
M  V30 7 C 11.2412 -5.469 0.0 0
M  V30 8 C 8.9248 -4.1906 0.0 0
M  V30 9 C 9.2849 -5.8848 0.0 0
M  V30 10 C 10.9322 -6.42 0.0 0
M  V30 11 C 9.2338 -3.2395 0.0 0
M  V30 12 C 7.9466 -4.3985 0.0 0
M  V30 13 C 9.954 -6.6279 0.0 0
M  V30 14 C 8.5647 -2.4964 0.0 0
M  V30 15 C 7.2775 -3.6554 0.0 0
M  V30 16 C 7.5865 -2.7043 0.0 0
M  V30 17 C 6.9174 -1.9612 0.0 0
M  V30 18 N 5.9392 -2.1691 0.0 0
M  V30 19 C 5.1961 -1.4999 0.0 0
M  V30 20 C 5.5325 -3.0826 0.0 0
M  V30 21 C 4.3301 -1.9999 0.0 0
M  V30 22 C 5.1961 -0.4999 0.0 0
M  V30 23 C 4.538 -2.9781 0.0 0
M  V30 24 C 6.0325 -3.9487 0.0 0
M  V30 25 C 3.4641 -1.5 0.0 0
M  V30 26 C 4.3301 0.0 0.0 0
M  V30 27 C 3.8689 -3.7212 0.0 0
M  V30 28 C 3.4641 -0.5 0.0 0
M  V30 29 C 2.598 0.0 0.0 0
M  V30 30 O 2.598 1.0 0.0 0
M  V30 31 N 1.732 -0.5 0.0 0
M  V30 32 C 0.866 0.0 0.0 0 CFG=2
M  V30 33 C 0.866 1.0 0.0 0
M  V30 34 C 0.0 -0.5 0.0 0
M  V30 35 C 1.732 1.5 0.0 0
M  V30 36 C 0.0 1.4999 0.0 0
M  V30 37 C 1.732 2.5 0.0 0
M  V30 38 C 0.0 2.5 0.0 0
M  V30 39 C 0.866 2.9999 0.0 0
M  V30 40 C 2.598 3.0 0.0 0
M  V30 41 C 3.4641 2.5 0.0 0
M  V30 42 C 2.598 4.0 0.0 0
M  V30 END ATOM
M  V30 BEGIN BOND
M  V30 1 2 1 2
M  V30 2 2 1 3
M  V30 3 1 1 4
M  V30 4 1 1 5
M  V30 5 2 5 6
M  V30 6 1 5 7
M  V30 7 1 6 8
M  V30 8 1 6 9
M  V30 9 2 7 10
M  V30 10 2 8 11
M  V30 11 1 8 12
M  V30 12 2 9 13
M  V30 13 1 11 14
M  V30 14 2 12 15
M  V30 15 2 14 16
M  V30 16 1 16 17
M  V30 17 1 17 18
M  V30 18 1 18 19
M  V30 19 1 18 20
M  V30 20 2 19 21
M  V30 21 1 19 22
M  V30 22 2 20 23
M  V30 23 1 20 24
M  V30 24 1 21 25
M  V30 25 2 22 26
M  V30 26 1 23 27
M  V30 27 2 25 28
M  V30 28 1 28 29
M  V30 29 2 29 30
M  V30 30 1 29 31
M  V30 31 1 31 32
M  V30 32 1 32 33
M  V30 33 1 32 34 CFG=1
M  V30 34 2 33 35
M  V30 35 1 33 36
M  V30 36 1 35 37
M  V30 37 2 36 38
M  V30 38 2 37 39
M  V30 39 1 37 40
M  V30 40 1 40 41
M  V30 41 1 40 42
M  V30 42 1 10 13
M  V30 43 1 15 16
M  V30 44 1 21 23
M  V30 45 1 26 28
M  V30 46 1 38 39
M  V30 END BOND
M  V30 BEGIN COLLECTION
M  V30 MDLV30/STEABS ATOMS=(1 32)
M  V30 END COLLECTION
M  V30 END CTAB
M  END
>  <Molecule ChEMBL ID>
CHEMBL3699392

>  <Smiles>
Cc1c(C)n(Cc2ccc(-c3ccccc3S(N)(=O)=O)cc2)c2ccc(C(=O)N[C@@H](C)c3cccc(C(C)C)c3)cc12

>  <IC50_nM>
1000

>  <Assay Description>
Lanthascreen Competitive Binding Assay: The assay was performed according to manufacturer protocol. A mixture of nM GST-PPARG-LBD, 5 nM Tb-GST-antibody, 5 nM Fluormone Pan-PPAR Green, and serial dilutions of the experimental compound, beginning at 10 ׬M downwards, was added to wells of black 384-well low-volume plates (Greiner) to a total volume of 18 ׬L. All dilutions were made in TR-FRET assay buffer C. DMSO at 2% final concentration was used as a no-ligand control. Experiment was performed in triplicate, and incubated for 2 hours in the dark prior to assay read in Perkin Elmer ViewLux ultra HTS microplate reader. FRET signal was measured by excitation at 340 nm and emission at 520 nm for fluorescein and 490 nm for terbium. Fold change over DMSO was calculated using GraphPad Prism Software (La Jolla, Calif.) by calculating 520 nm/490 nm ratio. Graphs were plotted as fold change of FRET signal for compound treatment over DMSO-only control.

$$$$
CHEMBL3695794
Actelion Java MolfileCreator 2.0

  0  0  0  0  0  0              0 V3000
M  V30 BEGIN CTAB
M  V30 COUNTS 40 44 0 0 0
M  V30 BEGIN ATOM
M  V30 1 S 11.6013 -7.1632 0.0 0
M  V30 2 O 10.8582 -7.8323 0.0 0
M  V30 3 O 12.3445 -6.4941 0.0 0
M  V30 4 C 10.9322 -6.42 0.0 0
M  V30 5 C 12.2704 -7.9063 0.0 0
M  V30 6 C 11.2412 -5.469 0.0 0
M  V30 7 C 9.954 -6.6279 0.0 0
M  V30 8 C 10.5721 -4.7258 0.0 0
M  V30 9 C 9.2849 -5.8848 0.0 0
M  V30 10 C 9.5939 -4.9337 0.0 0
M  V30 11 C 8.9248 -4.1906 0.0 0
M  V30 12 C 9.2338 -3.2395 0.0 0
M  V30 13 C 7.9466 -4.3985 0.0 0
M  V30 14 C 8.5647 -2.4964 0.0 0
M  V30 15 C 7.2775 -3.6554 0.0 0
M  V30 16 C 7.5865 -2.7043 0.0 0
M  V30 17 C 6.9174 -1.9612 0.0 0
M  V30 18 N 5.9392 -2.1691 0.0 0
M  V30 19 C 5.1961 -1.4999 0.0 0
M  V30 20 C 5.5325 -3.0826 0.0 0
M  V30 21 C 4.3301 -1.9999 0.0 0
M  V30 22 C 5.1961 -0.4999 0.0 0
M  V30 23 C 4.538 -2.9781 0.0 0
M  V30 24 C 3.4641 -1.5 0.0 0
M  V30 25 C 4.3301 0.0 0.0 0
M  V30 26 C 3.4641 -0.5 0.0 0
M  V30 27 C 2.598 0.0 0.0 0
M  V30 28 O 2.598 1.0 0.0 0
M  V30 29 N 1.732 -0.5 0.0 0
M  V30 30 C 0.866 0.0 0.0 0 CFG=2
M  V30 31 C 0.866 1.0 0.0 0
M  V30 32 C 0.0 -0.5 0.0 0
M  V30 33 C 1.732 1.5 0.0 0
M  V30 34 C 0.0 1.4999 0.0 0
M  V30 35 C 1.732 2.4999 0.0 0
M  V30 36 C 0.0 2.4999 0.0 0
M  V30 37 C 0.866 2.9999 0.0 0
M  V30 38 N 0.866 3.9999 0.0 0 CHG=1
M  V30 39 O 1.732 4.5 0.0 0
M  V30 40 O 0.0 4.5 0.0 0 CHG=-1
M  V30 END ATOM
M  V30 BEGIN BOND
M  V30 1 2 1 2
M  V30 2 2 1 3
M  V30 3 1 1 4
M  V30 4 1 1 5
M  V30 5 2 4 6
M  V30 6 1 4 7
M  V30 7 1 6 8
M  V30 8 2 7 9
M  V30 9 2 8 10
M  V30 10 1 10 11
M  V30 11 2 11 12
M  V30 12 1 11 13
M  V30 13 1 12 14
M  V30 14 2 13 15
M  V30 15 2 14 16
M  V30 16 1 16 17
M  V30 17 1 17 18
M  V30 18 1 18 19
M  V30 19 1 18 20
M  V30 20 2 19 21
M  V30 21 1 19 22
M  V30 22 2 20 23
M  V30 23 1 21 24
M  V30 24 2 22 25
M  V30 25 2 24 26
M  V30 26 1 26 27
M  V30 27 2 27 28
M  V30 28 1 27 29
M  V30 29 1 29 30
M  V30 30 1 30 31
M  V30 31 1 30 32 CFG=1
M  V30 32 2 31 33
M  V30 33 1 31 34
M  V30 34 1 33 35
M  V30 35 2 34 36
M  V30 36 2 35 37
M  V30 37 1 37 38
M  V30 38 2 38 39
M  V30 39 1 38 40
M  V30 40 1 9 10
M  V30 41 1 15 16
M  V30 42 1 21 23
M  V30 43 1 25 26
M  V30 44 1 36 37
M  V30 END BOND
M  V30 BEGIN COLLECTION
M  V30 MDLV30/STEABS ATOMS=(1 30)
M  V30 END COLLECTION
M  V30 END CTAB
M  END
>  <Molecule ChEMBL ID>
CHEMBL3695794

>  <Smiles>
C[C@H](NC(=O)c1ccc2c(ccn2Cc2ccc(-c3ccc(S(C)(=O)=O)cc3)cc2)c1)c1ccc([N+](=O)[O-])cc1

>  <IC50_nM>
1000

>  <Assay Description>
Lanthascreen Competitive Binding Assay: The assay was performed according to manufacturer protocol. A mixture of nM GST-PPARG-LBD, 5 nM Tb-GST-antibody, 5 nM Fluormone Pan-PPAR Green, and serial dilutions of the experimental compound, beginning at 10 ׬M downwards, was added to wells of black 384-well low-volume plates (Greiner) to a total volume of 18 ׬L. All dilutions were made in TR-FRET assay buffer C. DMSO at 2% final concentration was used as a no-ligand control. Experiment was performed in triplicate, and incubated for 2 hours in the dark prior to assay read in Perkin Elmer ViewLux ultra HTS microplate reader. FRET signal was measured by excitation at 340 nm and emission at 520 nm for fluorescein and 490 nm for terbium. Fold change over DMSO was calculated using GraphPad Prism Software (La Jolla, Calif.) by calculating 520 nm/490 nm ratio. Graphs were plotted as fold change of FRET signal for compound treatment over DMSO-only control.

$$$$
CHEMBL3695792
Actelion Java MolfileCreator 2.0

  0  0  0  0  0  0              0 V3000
M  V30 BEGIN CTAB
M  V30 COUNTS 37 41 0 0 0
M  V30 BEGIN ATOM
M  V30 1 O 9.0932 -4.5 0.0 0
M  V30 2 N 9.0932 -3.0 0.0 0 CHG=1
M  V30 3 O 10.3923 -2.25 0.0 0 CHG=-1
M  V30 4 C 7.7942 -2.25 0.0 0
M  V30 5 C 7.7942 -0.75 0.0 0
M  V30 6 C 6.4951 -2.9999 0.0 0
M  V30 7 C 6.4951 0.0 0.0 0
M  V30 8 C 5.1961 -2.25 0.0 0
M  V30 9 C 5.1961 -0.75 0.0 0
M  V30 10 C 3.8971 0.0 0.0 0 CFG=1
M  V30 11 N 2.598 -0.75 0.0 0
M  V30 12 C 3.8971 1.5 0.0 0
M  V30 13 C 1.299 0.0 0.0 0
M  V30 14 O 1.299 1.5 0.0 0
M  V30 15 C 0.0 -0.75 0.0 0
M  V30 16 C 0.0 -2.25 0.0 0
M  V30 17 C -1.299 0.0 0.0 0
M  V30 18 C -1.299 -2.9999 0.0 0
M  V30 19 C -2.598 -0.7499 0.0 0
M  V30 20 C -2.598 -2.2499 0.0 0
M  V30 21 C -1.6109 -4.4672 0.0 0
M  V30 22 N -3.7127 -3.2536 0.0 0
M  V30 23 C -3.1026 -4.624 0.0 0
M  V30 24 C -5.18 -2.9418 0.0 0
M  V30 25 C -6.1837 -4.0565 0.0 0
M  V30 26 C -7.6509 -3.7446 0.0 0
M  V30 27 C -5.7201 -5.4831 0.0 0
M  V30 28 C -8.6546 -4.8593 0.0 0
M  V30 29 C -6.7238 -6.5978 0.0 0
M  V30 30 C -8.1911 -6.2859 0.0 0
M  V30 31 C -9.1947 -7.4006 0.0 0
M  V30 32 C -10.662 -7.0888 0.0 0
M  V30 33 C -8.7312 -8.8272 0.0 0
M  V30 34 O -11.1255 -5.6622 0.0 0
M  V30 35 C -11.6657 -8.2035 0.0 0
M  V30 36 C -9.7349 -9.9419 0.0 0
M  V30 37 C -11.2021 -9.6301 0.0 0
M  V30 END ATOM
M  V30 BEGIN BOND
M  V30 1 2 1 2
M  V30 2 1 2 3
M  V30 3 1 2 4
M  V30 4 2 4 5
M  V30 5 1 4 6
M  V30 6 1 5 7
M  V30 7 2 6 8
M  V30 8 2 7 9
M  V30 9 1 9 10
M  V30 10 1 10 11
M  V30 11 1 10 12 CFG=1
M  V30 12 1 11 13
M  V30 13 2 13 14
M  V30 14 1 13 15
M  V30 15 2 15 16
M  V30 16 1 15 17
M  V30 17 1 16 18
M  V30 18 2 17 19
M  V30 19 2 18 20
M  V30 20 1 18 21
M  V30 21 1 20 22
M  V30 22 2 21 23
M  V30 23 1 22 24
M  V30 24 1 24 25
M  V30 25 2 25 26
M  V30 26 1 25 27
M  V30 27 1 26 28
M  V30 28 2 27 29
M  V30 29 2 28 30
M  V30 30 1 30 31
M  V30 31 2 31 32
M  V30 32 1 31 33
M  V30 33 1 32 34
M  V30 34 1 32 35
M  V30 35 2 33 36
M  V30 36 2 35 37
M  V30 37 1 8 9
M  V30 38 1 19 20
M  V30 39 1 22 23
M  V30 40 1 29 30
M  V30 41 1 36 37
M  V30 END BOND
M  V30 BEGIN COLLECTION
M  V30 MDLV30/STEABS ATOMS=(1 10)
M  V30 END COLLECTION
M  V30 END CTAB
M  END
>  <Molecule ChEMBL ID>
CHEMBL3695792

>  <Smiles>
C[C@H](NC(=O)c1ccc2c(ccn2Cc2ccc(-c3ccccc3O)cc2)c1)c1ccc([N+](=O)[O-])cc1

>  <IC50_nM>
1000

>  <Assay Description>
Lanthascreen Competitive Binding Assay: The assay was performed according to manufacturer protocol. A mixture of nM GST-PPARG-LBD, 5 nM Tb-GST-antibody, 5 nM Fluormone Pan-PPAR Green, and serial dilutions of the experimental compound, beginning at 10 ׬M downwards, was added to wells of black 384-well low-volume plates (Greiner) to a total volume of 18 ׬L. All dilutions were made in TR-FRET assay buffer C. DMSO at 2% final concentration was used as a no-ligand control. Experiment was performed in triplicate, and incubated for 2 hours in the dark prior to assay read in Perkin Elmer ViewLux ultra HTS microplate reader. FRET signal was measured by excitation at 340 nm and emission at 520 nm for fluorescein and 490 nm for terbium. Fold change over DMSO was calculated using GraphPad Prism Software (La Jolla, Calif.) by calculating 520 nm/490 nm ratio. Graphs were plotted as fold change of FRET signal for compound treatment over DMSO-only control.

$$$$
CHEMBL3699436
Actelion Java MolfileCreator 2.0

  0  0  0  0  0  0              0 V3000
M  V30 BEGIN CTAB
M  V30 COUNTS 46 50 0 0 0
M  V30 BEGIN ATOM
M  V30 1 O 5.1961 -0.5 0.0 0
M  V30 2 C 4.3301 0.0 0.0 0
M  V30 3 N 3.4641 -0.5 0.0 0
M  V30 4 C 4.3301 1.0 0.0 0
M  V30 5 C 2.598 0.0 0.0 0
M  V30 6 C 5.1961 1.4999 0.0 0
M  V30 7 C 3.4641 1.5 0.0 0
M  V30 8 C 1.732 -0.5 0.0 0
M  V30 9 C 6.0621 0.9999 0.0 0
M  V30 10 C 5.1961 2.4999 0.0 0
M  V30 11 C 3.4641 2.5 0.0 0
M  V30 12 N 0.866 0.0 0.0 0
M  V30 13 C 6.0621 0.0 0.0 0
M  V30 14 C 6.9282 1.4999 0.0 0
M  V30 15 C 4.3301 2.9999 0.0 0
M  V30 16 C 0.866 1.0 0.0 0
M  V30 17 C 0.0 -0.5 0.0 0
M  V30 18 C 6.9282 -0.5 0.0 0
M  V30 19 C 7.7942 0.9999 0.0 0
M  V30 20 C 7.7942 0.0 0.0 0
M  V30 21 C 8.6602 -0.5 0.0 0
M  V30 22 N 9.5262 0.0 0.0 0
M  V30 23 C 10.4398 -0.4067 0.0 0
M  V30 24 C 9.6308 0.9945 0.0 0
M  V30 25 C 11.1089 0.3364 0.0 0
M  V30 26 C 10.7488 -1.3577 0.0 0
M  V30 27 C 10.6089 1.2024 0.0 0
M  V30 28 C 8.8876 1.6636 0.0 0
M  V30 29 C 12.0871 0.1284 0.0 0
M  V30 30 C 11.7269 -1.5657 0.0 0
M  V30 31 C 11.0156 2.1159 0.0 0
M  V30 32 C 12.3961 -0.8225 0.0 0
M  V30 33 C 13.3742 -1.0304 0.0 0
M  V30 34 O 13.6832 -1.9815 0.0 0
M  V30 35 N 14.0433 -0.2873 0.0 0
M  V30 36 C 15.0215 -0.4952 0.0 0 CFG=2
M  V30 37 C 15.3305 -1.4462 0.0 0
M  V30 38 C 15.6906 0.2479 0.0 0
M  V30 39 C 14.6614 -2.1894 0.0 0
M  V30 40 C 16.3087 -1.6542 0.0 0
M  V30 41 C 14.9704 -3.1404 0.0 0
M  V30 42 C 16.6177 -2.6052 0.0 0
M  V30 43 C 15.9485 -3.3484 0.0 0
M  V30 44 C 14.3013 -3.8836 0.0 0
M  V30 45 C 13.3231 -3.6757 0.0 0
M  V30 46 C 14.6103 -4.8346 0.0 0
M  V30 END ATOM
M  V30 BEGIN BOND
M  V30 1 2 1 2
M  V30 2 1 2 3
M  V30 3 1 2 4
M  V30 4 1 3 5
M  V30 5 2 4 6
M  V30 6 1 4 7
M  V30 7 1 5 8
M  V30 8 1 6 9
M  V30 9 1 6 10
M  V30 10 2 7 11
M  V30 11 1 8 12
M  V30 12 2 9 13
M  V30 13 1 9 14
M  V30 14 2 10 15
M  V30 15 1 12 16
M  V30 16 1 12 17
M  V30 17 1 13 18
M  V30 18 2 14 19
M  V30 19 2 18 20
M  V30 20 1 20 21
M  V30 21 1 21 22
M  V30 22 1 22 23
M  V30 23 1 22 24
M  V30 24 2 23 25
M  V30 25 1 23 26
M  V30 26 2 24 27
M  V30 27 1 24 28
M  V30 28 1 25 29
M  V30 29 2 26 30
M  V30 30 1 27 31
M  V30 31 2 29 32
M  V30 32 1 32 33
M  V30 33 2 33 34
M  V30 34 1 33 35
M  V30 35 1 35 36
M  V30 36 1 36 37
M  V30 37 1 36 38 CFG=1
M  V30 38 2 37 39
M  V30 39 1 37 40
M  V30 40 1 39 41
M  V30 41 2 40 42
M  V30 42 2 41 43
M  V30 43 1 41 44
M  V30 44 1 44 45
M  V30 45 1 44 46
M  V30 46 1 11 15
M  V30 47 1 19 20
M  V30 48 1 25 27
M  V30 49 1 30 32
M  V30 50 1 42 43
M  V30 END BOND
M  V30 BEGIN COLLECTION
M  V30 MDLV30/STEABS ATOMS=(1 36)
M  V30 END COLLECTION
M  V30 END CTAB
M  END
>  <Molecule ChEMBL ID>
CHEMBL3699436

>  <Smiles>
Cc1c(C)n(Cc2ccc(-c3ccccc3C(=O)NCCN(C)C)cc2)c2ccc(C(=O)N[C@@H](C)c3cccc(C(C)C)c3)cc12

>  <IC50_nM>
1000

>  <Assay Description>
Lanthascreen Competitive Binding Assay: The assay was performed according to manufacturer protocol. A mixture of nM GST-PPARG-LBD, 5 nM Tb-GST-antibody, 5 nM Fluormone Pan-PPAR Green, and serial dilutions of the experimental compound, beginning at 10 ׬M downwards, was added to wells of black 384-well low-volume plates (Greiner) to a total volume of 18 ׬L. All dilutions were made in TR-FRET assay buffer C. DMSO at 2% final concentration was used as a no-ligand control. Experiment was performed in triplicate, and incubated for 2 hours in the dark prior to assay read in Perkin Elmer ViewLux ultra HTS microplate reader. FRET signal was measured by excitation at 340 nm and emission at 520 nm for fluorescein and 490 nm for terbium. Fold change over DMSO was calculated using GraphPad Prism Software (La Jolla, Calif.) by calculating 520 nm/490 nm ratio. Graphs were plotted as fold change of FRET signal for compound treatment over DMSO-only control.

$$$$
CHEMBL228492
Actelion Java MolfileCreator 2.0

  0  0  0  0  0  0              0 V3000
M  V30 BEGIN CTAB
M  V30 COUNTS 34 38 0 0 0
M  V30 BEGIN ATOM
M  V30 1 O 9.5262 1.0 0.0 0
M  V30 2 C 8.6602 1.5 0.0 0
M  V30 3 N 8.6602 2.5 0.0 0
M  V30 4 N 7.7942 1.0 0.0 0
M  V30 5 C 7.7942 2.9999 0.0 0
M  V30 6 C 6.9282 1.4999 0.0 0 CFG=2
M  V30 7 C 6.9282 2.4999 0.0 0
M  V30 8 C 7.7942 4.0 0.0 0
M  V30 9 C 6.0621 0.9999 0.0 0
M  V30 10 C 6.0621 2.9999 0.0 0
M  V30 11 C 5.1961 1.4999 0.0 0
M  V30 12 C 6.0621 0.0 0.0 0
M  V30 13 O 6.0621 3.9999 0.0 0
M  V30 14 O 5.1961 2.4999 0.0 0
M  V30 15 C 4.3301 0.9999 0.0 0
M  V30 16 C 5.1961 -0.5 0.0 0
M  V30 17 C 4.3301 0.0 0.0 0
M  V30 18 O 3.4641 -0.5 0.0 0
M  V30 19 C 2.598 0.0 0.0 0
M  V30 20 C 1.732 -0.5 0.0 0
M  V30 21 O 0.866 0.0 0.0 0
M  V30 22 C 0.0 -0.5 0.0 0
M  V30 23 C 0.0 -1.5 0.0 0
M  V30 24 C -0.866 0.0 0.0 0
M  V30 25 C -0.866 -1.9999 0.0 0
M  V30 26 C 0.7431 -2.1691 0.0 0
M  V30 27 C -1.732 -0.4999 0.0 0
M  V30 28 N -0.6581 -2.9781 0.0 0
M  V30 29 C -1.732 -1.4999 0.0 0
M  V30 30 C 0.3364 -3.0826 0.0 0
M  V30 31 C 1.7376 -2.0646 0.0 0
M  V30 32 C 0.9241 -3.8916 0.0 0
M  V30 33 C 2.3254 -2.8736 0.0 0
M  V30 34 C 1.9187 -3.7871 0.0 0
M  V30 END ATOM
M  V30 BEGIN BOND
M  V30 1 2 1 2
M  V30 2 1 2 3
M  V30 3 1 2 4
M  V30 4 1 3 5
M  V30 5 1 4 6
M  V30 6 2 5 7
M  V30 7 1 5 8
M  V30 8 1 6 9 CFG=1
M  V30 9 1 7 10
M  V30 10 2 9 11
M  V30 11 1 9 12
M  V30 12 2 10 13
M  V30 13 1 10 14
M  V30 14 1 11 15
M  V30 15 2 12 16
M  V30 16 2 15 17
M  V30 17 1 17 18
M  V30 18 1 18 19
M  V30 19 1 19 20
M  V30 20 1 20 21
M  V30 21 1 21 22
M  V30 22 2 22 23
M  V30 23 1 22 24
M  V30 24 1 23 25
M  V30 25 1 23 26
M  V30 26 2 24 27
M  V30 27 1 25 28
M  V30 28 2 25 29
M  V30 29 2 26 30
M  V30 30 1 26 31
M  V30 31 1 30 32
M  V30 32 2 31 33
M  V30 33 2 32 34
M  V30 34 1 6 7
M  V30 35 1 16 17
M  V30 36 1 27 29
M  V30 37 1 28 30
M  V30 38 1 33 34
M  V30 END BOND
M  V30 BEGIN COLLECTION
M  V30 MDLV30/STERAC1 ATOMS=(1 6)
M  V30 END COLLECTION
M  V30 END CTAB
M  END
>  <Molecule ChEMBL ID>
CHEMBL228492

>  <Smiles>
CC1=C(C(=O)O)C(c2ccc(OCCOc3cccc4[nH]c5ccccc5c34)cc2)NC(=O)N1

>  <IC50_nM>
1000

>  <Assay Description>
Displacement of [3H]rosiglitazone from PPAR gamma

$$$$
CHEMBL3695798
Actelion Java MolfileCreator 2.0

  0  0  0  0  0  0              0 V3000
M  V30 BEGIN CTAB
M  V30 COUNTS 38 42 0 0 0
M  V30 BEGIN ATOM
M  V30 1 O 9.0932 -4.5 0.0 0
M  V30 2 N 9.0932 -3.0 0.0 0 CHG=1
M  V30 3 O 10.3923 -2.25 0.0 0 CHG=-1
M  V30 4 C 7.7942 -2.25 0.0 0
M  V30 5 C 7.7942 -0.75 0.0 0
M  V30 6 C 6.4951 -2.9999 0.0 0
M  V30 7 C 6.4951 0.0 0.0 0
M  V30 8 C 5.1961 -2.25 0.0 0
M  V30 9 C 5.1961 -0.75 0.0 0
M  V30 10 C 3.8971 0.0 0.0 0 CFG=1
M  V30 11 N 2.598 -0.75 0.0 0
M  V30 12 C 3.8971 1.5 0.0 0
M  V30 13 C 1.299 0.0 0.0 0
M  V30 14 O 1.299 1.5 0.0 0
M  V30 15 C 0.0 -0.75 0.0 0
M  V30 16 C 0.0 -2.25 0.0 0
M  V30 17 C -1.299 0.0 0.0 0
M  V30 18 C -1.299 -2.9999 0.0 0
M  V30 19 C -2.598 -0.7499 0.0 0
M  V30 20 C -2.598 -2.2499 0.0 0
M  V30 21 C -1.6109 -4.4672 0.0 0
M  V30 22 N -3.7127 -3.2536 0.0 0
M  V30 23 C -3.1026 -4.624 0.0 0
M  V30 24 C -5.18 -2.9418 0.0 0
M  V30 25 C -6.1837 -4.0565 0.0 0
M  V30 26 C -7.6509 -3.7446 0.0 0
M  V30 27 C -5.7201 -5.4831 0.0 0
M  V30 28 C -8.6546 -4.8593 0.0 0
M  V30 29 C -6.7238 -6.5978 0.0 0
M  V30 30 C -8.1911 -6.2859 0.0 0
M  V30 31 C -9.1947 -7.4006 0.0 0
M  V30 32 C -10.662 -7.0888 0.0 0
M  V30 33 C -8.7312 -8.8272 0.0 0
M  V30 34 C -11.6657 -8.2035 0.0 0
M  V30 35 C -11.1255 -5.6622 0.0 0
M  V30 36 C -9.7349 -9.9419 0.0 0
M  V30 37 C -11.2021 -9.6301 0.0 0
M  V30 38 O -12.5927 -5.3503 0.0 0
M  V30 END ATOM
M  V30 BEGIN BOND
M  V30 1 2 1 2
M  V30 2 1 2 3
M  V30 3 1 2 4
M  V30 4 2 4 5
M  V30 5 1 4 6
M  V30 6 1 5 7
M  V30 7 2 6 8
M  V30 8 2 7 9
M  V30 9 1 9 10
M  V30 10 1 10 11
M  V30 11 1 10 12 CFG=1
M  V30 12 1 11 13
M  V30 13 2 13 14
M  V30 14 1 13 15
M  V30 15 2 15 16
M  V30 16 1 15 17
M  V30 17 1 16 18
M  V30 18 2 17 19
M  V30 19 2 18 20
M  V30 20 1 18 21
M  V30 21 1 20 22
M  V30 22 2 21 23
M  V30 23 1 22 24
M  V30 24 1 24 25
M  V30 25 2 25 26
M  V30 26 1 25 27
M  V30 27 1 26 28
M  V30 28 2 27 29
M  V30 29 2 28 30
M  V30 30 1 30 31
M  V30 31 2 31 32
M  V30 32 1 31 33
M  V30 33 1 32 34
M  V30 34 1 32 35
M  V30 35 2 33 36
M  V30 36 2 34 37
M  V30 37 1 35 38
M  V30 38 1 8 9
M  V30 39 1 19 20
M  V30 40 1 22 23
M  V30 41 1 29 30
M  V30 42 1 36 37
M  V30 END BOND
M  V30 BEGIN COLLECTION
M  V30 MDLV30/STEABS ATOMS=(1 10)
M  V30 END COLLECTION
M  V30 END CTAB
M  END
>  <Molecule ChEMBL ID>
CHEMBL3695798

>  <Smiles>
C[C@H](NC(=O)c1ccc2c(ccn2Cc2ccc(-c3ccccc3CO)cc2)c1)c1ccc([N+](=O)[O-])cc1

>  <IC50_nM>
1000

>  <Assay Description>
Lanthascreen Competitive Binding Assay: The assay was performed according to manufacturer protocol. A mixture of nM GST-PPARG-LBD, 5 nM Tb-GST-antibody, 5 nM Fluormone Pan-PPAR Green, and serial dilutions of the experimental compound, beginning at 10 ׬M downwards, was added to wells of black 384-well low-volume plates (Greiner) to a total volume of 18 ׬L. All dilutions were made in TR-FRET assay buffer C. DMSO at 2% final concentration was used as a no-ligand control. Experiment was performed in triplicate, and incubated for 2 hours in the dark prior to assay read in Perkin Elmer ViewLux ultra HTS microplate reader. FRET signal was measured by excitation at 340 nm and emission at 520 nm for fluorescein and 490 nm for terbium. Fold change over DMSO was calculated using GraphPad Prism Software (La Jolla, Calif.) by calculating 520 nm/490 nm ratio. Graphs were plotted as fold change of FRET signal for compound treatment over DMSO-only control.

$$$$
CHEMBL3695801
Actelion Java MolfileCreator 2.0

  0  0  0  0  0  0              0 V3000
M  V30 BEGIN CTAB
M  V30 COUNTS 37 41 0 0 0
M  V30 BEGIN ATOM
M  V30 1 Cl 12.2193 -5.2611 0.0 0
M  V30 2 C 11.2412 -5.469 0.0 0
M  V30 3 C 10.5721 -4.7258 0.0 0
M  V30 4 C 10.9322 -6.42 0.0 0
M  V30 5 C 9.5939 -4.9337 0.0 0
M  V30 6 C 9.954 -6.6279 0.0 0
M  V30 7 C 8.9248 -4.1906 0.0 0
M  V30 8 C 9.2849 -5.8848 0.0 0
M  V30 9 C 9.2338 -3.2395 0.0 0
M  V30 10 C 7.9466 -4.3985 0.0 0
M  V30 11 C 8.5647 -2.4964 0.0 0
M  V30 12 C 7.2775 -3.6554 0.0 0
M  V30 13 C 7.5865 -2.7043 0.0 0
M  V30 14 C 6.9174 -1.9612 0.0 0
M  V30 15 N 5.9392 -2.1691 0.0 0
M  V30 16 C 5.1961 -1.4999 0.0 0
M  V30 17 C 5.5325 -3.0826 0.0 0
M  V30 18 C 4.3301 -1.9999 0.0 0
M  V30 19 C 5.1961 -0.4999 0.0 0
M  V30 20 C 4.538 -2.9781 0.0 0
M  V30 21 C 3.4641 -1.5 0.0 0
M  V30 22 C 4.3301 0.0 0.0 0
M  V30 23 C 3.4641 -0.5 0.0 0
M  V30 24 C 2.598 0.0 0.0 0
M  V30 25 O 2.598 1.0 0.0 0
M  V30 26 N 1.732 -0.5 0.0 0
M  V30 27 C 0.866 0.0 0.0 0 CFG=2
M  V30 28 C 0.866 1.0 0.0 0
M  V30 29 C 0.0 -0.5 0.0 0
M  V30 30 C 1.732 1.5 0.0 0
M  V30 31 C 0.0 1.4999 0.0 0
M  V30 32 C 1.732 2.4999 0.0 0
M  V30 33 C 0.0 2.4999 0.0 0
M  V30 34 C 0.866 2.9999 0.0 0
M  V30 35 N 0.866 3.9999 0.0 0 CHG=1
M  V30 36 O 1.732 4.5 0.0 0
M  V30 37 O 0.0 4.5 0.0 0 CHG=-1
M  V30 END ATOM
M  V30 BEGIN BOND
M  V30 1 1 1 2
M  V30 2 2 2 3
M  V30 3 1 2 4
M  V30 4 1 3 5
M  V30 5 2 4 6
M  V30 6 1 5 7
M  V30 7 2 5 8
M  V30 8 2 7 9
M  V30 9 1 7 10
M  V30 10 1 9 11
M  V30 11 2 10 12
M  V30 12 2 11 13
M  V30 13 1 13 14
M  V30 14 1 14 15
M  V30 15 1 15 16
M  V30 16 1 15 17
M  V30 17 2 16 18
M  V30 18 1 16 19
M  V30 19 2 17 20
M  V30 20 1 18 21
M  V30 21 2 19 22
M  V30 22 2 21 23
M  V30 23 1 23 24
M  V30 24 2 24 25
M  V30 25 1 24 26
M  V30 26 1 26 27
M  V30 27 1 27 28
M  V30 28 1 27 29 CFG=1
M  V30 29 2 28 30
M  V30 30 1 28 31
M  V30 31 1 30 32
M  V30 32 2 31 33
M  V30 33 2 32 34
M  V30 34 1 34 35
M  V30 35 2 35 36
M  V30 36 1 35 37
M  V30 37 1 6 8
M  V30 38 1 12 13
M  V30 39 1 18 20
M  V30 40 1 22 23
M  V30 41 1 33 34
M  V30 END BOND
M  V30 BEGIN COLLECTION
M  V30 MDLV30/STEABS ATOMS=(1 27)
M  V30 END COLLECTION
M  V30 END CTAB
M  END
>  <Molecule ChEMBL ID>
CHEMBL3695801

>  <Smiles>
C[C@H](NC(=O)c1ccc2c(ccn2Cc2ccc(-c3cccc(Cl)c3)cc2)c1)c1ccc([N+](=O)[O-])cc1

>  <IC50_nM>
1000

>  <Assay Description>
Lanthascreen Competitive Binding Assay: The assay was performed according to manufacturer protocol. A mixture of nM GST-PPARG-LBD, 5 nM Tb-GST-antibody, 5 nM Fluormone Pan-PPAR Green, and serial dilutions of the experimental compound, beginning at 10 ׬M downwards, was added to wells of black 384-well low-volume plates (Greiner) to a total volume of 18 ׬L. All dilutions were made in TR-FRET assay buffer C. DMSO at 2% final concentration was used as a no-ligand control. Experiment was performed in triplicate, and incubated for 2 hours in the dark prior to assay read in Perkin Elmer ViewLux ultra HTS microplate reader. FRET signal was measured by excitation at 340 nm and emission at 520 nm for fluorescein and 490 nm for terbium. Fold change over DMSO was calculated using GraphPad Prism Software (La Jolla, Calif.) by calculating 520 nm/490 nm ratio. Graphs were plotted as fold change of FRET signal for compound treatment over DMSO-only control.

$$$$
CHEMBL3695802
Actelion Java MolfileCreator 2.0

  0  0  0  0  0  0              0 V3000
M  V30 BEGIN CTAB
M  V30 COUNTS 39 43 0 0 0
M  V30 BEGIN ATOM
M  V30 1 O 9.0932 -4.5 0.0 0
M  V30 2 N 9.0932 -3.0 0.0 0 CHG=1
M  V30 3 O 10.3923 -2.25 0.0 0 CHG=-1
M  V30 4 C 7.7942 -2.2499 0.0 0
M  V30 5 C 7.7942 -0.75 0.0 0
M  V30 6 C 6.4951 -2.9999 0.0 0
M  V30 7 C 6.4951 0.0 0.0 0
M  V30 8 C 5.1961 -2.25 0.0 0
M  V30 9 C 5.1961 -0.75 0.0 0
M  V30 10 C 3.8971 0.0 0.0 0 CFG=1
M  V30 11 N 2.598 -0.75 0.0 0
M  V30 12 C 3.8971 1.5 0.0 0
M  V30 13 C 1.299 0.0 0.0 0
M  V30 14 O 1.299 1.5 0.0 0
M  V30 15 C 0.0 -0.75 0.0 0
M  V30 16 C 0.0 -2.2499 0.0 0
M  V30 17 C -1.299 0.0 0.0 0
M  V30 18 C -1.299 -2.9999 0.0 0
M  V30 19 C -2.598 -0.7499 0.0 0
M  V30 20 C -2.598 -2.2499 0.0 0
M  V30 21 C -1.6109 -4.4672 0.0 0
M  V30 22 N -3.7127 -3.2536 0.0 0
M  V30 23 C -3.1026 -4.624 0.0 0
M  V30 24 C -5.18 -2.9418 0.0 0
M  V30 25 C -6.1837 -4.0565 0.0 0
M  V30 26 C -7.6509 -3.7446 0.0 0
M  V30 27 C -5.7201 -5.4831 0.0 0
M  V30 28 C -8.6546 -4.8593 0.0 0
M  V30 29 C -6.7238 -6.5978 0.0 0
M  V30 30 C -8.1911 -6.2859 0.0 0
M  V30 31 C -9.1947 -7.4006 0.0 0
M  V30 32 C -10.662 -7.0888 0.0 0
M  V30 33 C -8.7312 -8.8272 0.0 0
M  V30 34 C -11.6657 -8.2035 0.0 0
M  V30 35 C -9.7349 -9.9419 0.0 0
M  V30 36 C -11.2021 -9.6301 0.0 0
M  V30 37 C -12.2058 -10.7448 0.0 0
M  V30 38 O -13.6731 -10.4329 0.0 0
M  V30 39 O -11.7423 -12.1714 0.0 0
M  V30 END ATOM
M  V30 BEGIN BOND
M  V30 1 2 1 2
M  V30 2 1 2 3
M  V30 3 1 2 4
M  V30 4 2 4 5
M  V30 5 1 4 6
M  V30 6 1 5 7
M  V30 7 2 6 8
M  V30 8 2 7 9
M  V30 9 1 9 10
M  V30 10 1 10 11
M  V30 11 1 10 12 CFG=1
M  V30 12 1 11 13
M  V30 13 2 13 14
M  V30 14 1 13 15
M  V30 15 2 15 16
M  V30 16 1 15 17
M  V30 17 1 16 18
M  V30 18 2 17 19
M  V30 19 2 18 20
M  V30 20 1 18 21
M  V30 21 1 20 22
M  V30 22 2 21 23
M  V30 23 1 22 24
M  V30 24 1 24 25
M  V30 25 2 25 26
M  V30 26 1 25 27
M  V30 27 1 26 28
M  V30 28 2 27 29
M  V30 29 2 28 30
M  V30 30 1 30 31
M  V30 31 2 31 32
M  V30 32 1 31 33
M  V30 33 1 32 34
M  V30 34 2 33 35
M  V30 35 2 34 36
M  V30 36 1 36 37
M  V30 37 2 37 38
M  V30 38 1 37 39
M  V30 39 1 8 9
M  V30 40 1 19 20
M  V30 41 1 22 23
M  V30 42 1 29 30
M  V30 43 1 35 36
M  V30 END BOND
M  V30 BEGIN COLLECTION
M  V30 MDLV30/STEABS ATOMS=(1 10)
M  V30 END COLLECTION
M  V30 END CTAB
M  END
>  <Molecule ChEMBL ID>
CHEMBL3695802

>  <Smiles>
C[C@H](NC(=O)c1ccc2c(ccn2Cc2ccc(-c3ccc(C(=O)O)cc3)cc2)c1)c1ccc([N+](=O)[O-])cc1

>  <IC50_nM>
1000

>  <Assay Description>
Lanthascreen Competitive Binding Assay: The assay was performed according to manufacturer protocol. A mixture of nM GST-PPARG-LBD, 5 nM Tb-GST-antibody, 5 nM Fluormone Pan-PPAR Green, and serial dilutions of the experimental compound, beginning at 10 ׬M downwards, was added to wells of black 384-well low-volume plates (Greiner) to a total volume of 18 ׬L. All dilutions were made in TR-FRET assay buffer C. DMSO at 2% final concentration was used as a no-ligand control. Experiment was performed in triplicate, and incubated for 2 hours in the dark prior to assay read in Perkin Elmer ViewLux ultra HTS microplate reader. FRET signal was measured by excitation at 340 nm and emission at 520 nm for fluorescein and 490 nm for terbium. Fold change over DMSO was calculated using GraphPad Prism Software (La Jolla, Calif.) by calculating 520 nm/490 nm ratio. Graphs were plotted as fold change of FRET signal for compound treatment over DMSO-only control.

$$$$
CHEMBL3695795
Actelion Java MolfileCreator 2.0

  0  0  0  0  0  0              0 V3000
M  V30 BEGIN CTAB
M  V30 COUNTS 38 42 0 0 0
M  V30 BEGIN ATOM
M  V30 1 S 11.6013 -7.1632 0.0 0
M  V30 2 C 10.9322 -6.42 0.0 0
M  V30 3 C 12.5795 -6.9553 0.0 0
M  V30 4 C 11.2412 -5.469 0.0 0
M  V30 5 C 9.954 -6.6279 0.0 0
M  V30 6 C 10.5721 -4.7258 0.0 0
M  V30 7 C 9.2849 -5.8848 0.0 0
M  V30 8 C 9.5939 -4.9337 0.0 0
M  V30 9 C 8.9248 -4.1906 0.0 0
M  V30 10 C 9.2338 -3.2395 0.0 0
M  V30 11 C 7.9466 -4.3985 0.0 0
M  V30 12 C 8.5647 -2.4964 0.0 0
M  V30 13 C 7.2775 -3.6554 0.0 0
M  V30 14 C 7.5865 -2.7043 0.0 0
M  V30 15 C 6.9174 -1.9612 0.0 0
M  V30 16 N 5.9392 -2.1691 0.0 0
M  V30 17 C 5.1961 -1.4999 0.0 0
M  V30 18 C 5.5325 -3.0826 0.0 0
M  V30 19 C 4.3301 -1.9999 0.0 0
M  V30 20 C 5.1961 -0.4999 0.0 0
M  V30 21 C 4.538 -2.9781 0.0 0
M  V30 22 C 3.4641 -1.5 0.0 0
M  V30 23 C 4.3301 0.0 0.0 0
M  V30 24 C 3.4641 -0.5 0.0 0
M  V30 25 C 2.598 0.0 0.0 0
M  V30 26 O 2.598 1.0 0.0 0
M  V30 27 N 1.732 -0.5 0.0 0
M  V30 28 C 0.866 0.0 0.0 0 CFG=2
M  V30 29 C 0.866 1.0 0.0 0
M  V30 30 C 0.0 -0.5 0.0 0
M  V30 31 C 1.732 1.5 0.0 0
M  V30 32 C 0.0 1.4999 0.0 0
M  V30 33 C 1.732 2.4999 0.0 0
M  V30 34 C 0.0 2.4999 0.0 0
M  V30 35 C 0.866 2.9999 0.0 0
M  V30 36 N 0.866 3.9999 0.0 0 CHG=1
M  V30 37 O 1.732 4.5 0.0 0
M  V30 38 O 0.0 4.5 0.0 0 CHG=-1
M  V30 END ATOM
M  V30 BEGIN BOND
M  V30 1 1 1 2
M  V30 2 1 1 3
M  V30 3 2 2 4
M  V30 4 1 2 5
M  V30 5 1 4 6
M  V30 6 2 5 7
M  V30 7 2 6 8
M  V30 8 1 8 9
M  V30 9 2 9 10
M  V30 10 1 9 11
M  V30 11 1 10 12
M  V30 12 2 11 13
M  V30 13 2 12 14
M  V30 14 1 14 15
M  V30 15 1 15 16
M  V30 16 1 16 17
M  V30 17 1 16 18
M  V30 18 2 17 19
M  V30 19 1 17 20
M  V30 20 2 18 21
M  V30 21 1 19 22
M  V30 22 2 20 23
M  V30 23 2 22 24
M  V30 24 1 24 25
M  V30 25 2 25 26
M  V30 26 1 25 27
M  V30 27 1 27 28
M  V30 28 1 28 29
M  V30 29 1 28 30 CFG=1
M  V30 30 2 29 31
M  V30 31 1 29 32
M  V30 32 1 31 33
M  V30 33 2 32 34
M  V30 34 2 33 35
M  V30 35 1 35 36
M  V30 36 2 36 37
M  V30 37 1 36 38
M  V30 38 1 7 8
M  V30 39 1 13 14
M  V30 40 1 19 21
M  V30 41 1 23 24
M  V30 42 1 34 35
M  V30 END BOND
M  V30 BEGIN COLLECTION
M  V30 MDLV30/STEABS ATOMS=(1 28)
M  V30 END COLLECTION
M  V30 END CTAB
M  END
>  <Molecule ChEMBL ID>
CHEMBL3695795

>  <Smiles>
CSc1ccc(-c2ccc(Cn3ccc4cc(C(=O)N[C@@H](C)c5ccc([N+](=O)[O-])cc5)ccc43)cc2)cc1

>  <IC50_nM>
1000

>  <Assay Description>
Lanthascreen Competitive Binding Assay: The assay was performed according to manufacturer protocol. A mixture of nM GST-PPARG-LBD, 5 nM Tb-GST-antibody, 5 nM Fluormone Pan-PPAR Green, and serial dilutions of the experimental compound, beginning at 10 ׬M downwards, was added to wells of black 384-well low-volume plates (Greiner) to a total volume of 18 ׬L. All dilutions were made in TR-FRET assay buffer C. DMSO at 2% final concentration was used as a no-ligand control. Experiment was performed in triplicate, and incubated for 2 hours in the dark prior to assay read in Perkin Elmer ViewLux ultra HTS microplate reader. FRET signal was measured by excitation at 340 nm and emission at 520 nm for fluorescein and 490 nm for terbium. Fold change over DMSO was calculated using GraphPad Prism Software (La Jolla, Calif.) by calculating 520 nm/490 nm ratio. Graphs were plotted as fold change of FRET signal for compound treatment over DMSO-only control.

$$$$
CHEMBL3695783
Actelion Java MolfileCreator 2.0

  0  0  0  0  0  0              0 V3000
M  V30 BEGIN CTAB
M  V30 COUNTS 42 47 0 0 0
M  V30 BEGIN ATOM
M  V30 1 O 11.8592 -3.5669 0.0 0
M  V30 2 C 10.8811 -3.7748 0.0 0
M  V30 3 O 10.212 -3.0316 0.0 0
M  V30 4 C 10.5721 -4.7258 0.0 0
M  V30 5 C 9.5939 -4.9337 0.0 0
M  V30 6 C 11.2412 -5.469 0.0 0
M  V30 7 C 8.9248 -4.1906 0.0 0
M  V30 8 C 9.2849 -5.8848 0.0 0
M  V30 9 C 10.9322 -6.42 0.0 0
M  V30 10 C 9.2338 -3.2395 0.0 0
M  V30 11 C 7.9466 -4.3985 0.0 0
M  V30 12 C 9.954 -6.6279 0.0 0
M  V30 13 C 8.5647 -2.4964 0.0 0
M  V30 14 C 7.2775 -3.6554 0.0 0
M  V30 15 C 7.5865 -2.7043 0.0 0
M  V30 16 C 6.9174 -1.9612 0.0 0
M  V30 17 N 5.9392 -2.1691 0.0 0
M  V30 18 C 5.1961 -1.4999 0.0 0
M  V30 19 C 5.5325 -3.0826 0.0 0
M  V30 20 C 4.3301 -1.9999 0.0 0
M  V30 21 C 5.1961 -0.4999 0.0 0
M  V30 22 C 4.538 -2.9781 0.0 0
M  V30 23 C 6.0325 -3.9487 0.0 0
M  V30 24 C 3.4641 -1.5 0.0 0
M  V30 25 C 4.3301 0.0 0.0 0
M  V30 26 C 3.8689 -3.7212 0.0 0
M  V30 27 C 3.4641 -0.5 0.0 0
M  V30 28 C 2.598 0.0 0.0 0
M  V30 29 O 2.598 1.0 0.0 0
M  V30 30 N 1.732 -0.5 0.0 0
M  V30 31 C 0.866 0.0 0.0 0 CFG=2
M  V30 32 C 0.866 1.0 0.0 0
M  V30 33 C 0.0 -0.5 0.0 0
M  V30 34 C 1.732 1.4999 0.0 0
M  V30 35 C 0.0 1.4999 0.0 0
M  V30 36 C 1.732 2.5 0.0 0
M  V30 37 C 0.0 2.5 0.0 0
M  V30 38 C 0.866 3.0 0.0 0
M  V30 39 C 2.598 2.9999 0.0 0
M  V30 40 C 0.866 4.0 0.0 0
M  V30 41 C 2.598 4.0 0.0 0
M  V30 42 C 1.732 4.5 0.0 0
M  V30 END ATOM
M  V30 BEGIN BOND
M  V30 1 2 1 2
M  V30 2 1 2 3
M  V30 3 1 2 4
M  V30 4 2 4 5
M  V30 5 1 4 6
M  V30 6 1 5 7
M  V30 7 1 5 8
M  V30 8 2 6 9
M  V30 9 2 7 10
M  V30 10 1 7 11
M  V30 11 2 8 12
M  V30 12 1 10 13
M  V30 13 2 11 14
M  V30 14 2 13 15
M  V30 15 1 15 16
M  V30 16 1 16 17
M  V30 17 1 17 18
M  V30 18 1 17 19
M  V30 19 2 18 20
M  V30 20 1 18 21
M  V30 21 2 19 22
M  V30 22 1 19 23
M  V30 23 1 20 24
M  V30 24 2 21 25
M  V30 25 1 22 26
M  V30 26 2 24 27
M  V30 27 1 27 28
M  V30 28 2 28 29
M  V30 29 1 28 30
M  V30 30 1 30 31
M  V30 31 1 31 32
M  V30 32 1 31 33 CFG=1
M  V30 33 2 32 34
M  V30 34 1 32 35
M  V30 35 1 34 36
M  V30 36 2 35 37
M  V30 37 1 36 38
M  V30 38 2 36 39
M  V30 39 2 38 40
M  V30 40 1 39 41
M  V30 41 1 40 42
M  V30 42 1 9 12
M  V30 43 1 14 15
M  V30 44 1 20 22
M  V30 45 1 25 27
M  V30 46 1 37 38
M  V30 47 2 41 42
M  V30 END BOND
M  V30 BEGIN COLLECTION
M  V30 MDLV30/STEABS ATOMS=(1 31)
M  V30 END COLLECTION
M  V30 END CTAB
M  END
>  <Molecule ChEMBL ID>
CHEMBL3695783

>  <Smiles>
Cc1c(C)n(Cc2ccc(-c3ccccc3C(=O)O)cc2)c2ccc(C(=O)N[C@@H](C)c3ccc4ccccc4c3)cc12

>  <IC50_nM>
1000

>  <Assay Description>
Lanthascreen Competitive Binding Assay: The assay was performed according to manufacturer protocol. A mixture of nM GST-PPARG-LBD, 5 nM Tb-GST-antibody, 5 nM Fluormone Pan-PPAR Green, and serial dilutions of the experimental compound, beginning at 10 ׬M downwards, was added to wells of black 384-well low-volume plates (Greiner) to a total volume of 18 ׬L. All dilutions were made in TR-FRET assay buffer C. DMSO at 2% final concentration was used as a no-ligand control. Experiment was performed in triplicate, and incubated for 2 hours in the dark prior to assay read in Perkin Elmer ViewLux ultra HTS microplate reader. FRET signal was measured by excitation at 340 nm and emission at 520 nm for fluorescein and 490 nm for terbium. Fold change over DMSO was calculated using GraphPad Prism Software (La Jolla, Calif.) by calculating 520 nm/490 nm ratio. Graphs were plotted as fold change of FRET signal for compound treatment over DMSO-only control.

$$$$
CHEMBL3695791
Actelion Java MolfileCreator 2.0

  0  0  0  0  0  0              0 V3000
M  V30 BEGIN CTAB
M  V30 COUNTS 36 40 0 0 0
M  V30 BEGIN ATOM
M  V30 1 O 6.0621 -3.0 0.0 0
M  V30 2 N 6.0621 -1.9999 0.0 0 CHG=1
M  V30 3 O 6.9282 -1.5 0.0 0 CHG=-1
M  V30 4 C 5.1961 -1.4999 0.0 0
M  V30 5 C 5.1961 -0.5 0.0 0
M  V30 6 C 4.3301 -1.9999 0.0 0
M  V30 7 C 4.3301 0.0 0.0 0
M  V30 8 C 3.4641 -1.5 0.0 0
M  V30 9 C 3.4641 -0.5 0.0 0
M  V30 10 C 2.598 0.0 0.0 0 CFG=1
M  V30 11 N 1.732 -0.5 0.0 0
M  V30 12 C 2.598 1.0 0.0 0
M  V30 13 C 0.866 0.0 0.0 0
M  V30 14 O 0.866 1.0 0.0 0
M  V30 15 C 0.0 -0.5 0.0 0
M  V30 16 C 0.0 -1.4999 0.0 0
M  V30 17 C -0.866 0.0 0.0 0
M  V30 18 C -0.866 -1.9999 0.0 0
M  V30 19 C -1.732 -0.4999 0.0 0
M  V30 20 C -1.732 -1.4999 0.0 0
M  V30 21 C -1.0739 -2.9781 0.0 0
M  V30 22 N -2.4751 -2.1691 0.0 0
M  V30 23 C -2.0684 -3.0826 0.0 0
M  V30 24 C -3.4533 -1.9612 0.0 0
M  V30 25 C -4.1224 -2.7043 0.0 0
M  V30 26 C -5.1006 -2.4964 0.0 0
M  V30 27 C -3.8134 -3.6554 0.0 0
M  V30 28 C -5.7697 -3.2395 0.0 0
M  V30 29 C -4.4825 -4.3985 0.0 0
M  V30 30 C -5.4607 -4.1906 0.0 0
M  V30 31 C -6.1298 -4.9337 0.0 0
M  V30 32 C -7.108 -4.7258 0.0 0
M  V30 33 C -5.8208 -5.8848 0.0 0
M  V30 34 C -7.7771 -5.469 0.0 0
M  V30 35 C -6.4899 -6.6279 0.0 0
M  V30 36 C -7.4681 -6.42 0.0 0
M  V30 END ATOM
M  V30 BEGIN BOND
M  V30 1 2 1 2
M  V30 2 1 2 3
M  V30 3 1 2 4
M  V30 4 2 4 5
M  V30 5 1 4 6
M  V30 6 1 5 7
M  V30 7 2 6 8
M  V30 8 2 7 9
M  V30 9 1 9 10
M  V30 10 1 10 11
M  V30 11 1 10 12 CFG=1
M  V30 12 1 11 13
M  V30 13 2 13 14
M  V30 14 1 13 15
M  V30 15 2 15 16
M  V30 16 1 15 17
M  V30 17 1 16 18
M  V30 18 2 17 19
M  V30 19 2 18 20
M  V30 20 1 18 21
M  V30 21 1 20 22
M  V30 22 2 21 23
M  V30 23 1 22 24
M  V30 24 1 24 25
M  V30 25 2 25 26
M  V30 26 1 25 27
M  V30 27 1 26 28
M  V30 28 2 27 29
M  V30 29 2 28 30
M  V30 30 1 30 31
M  V30 31 2 31 32
M  V30 32 1 31 33
M  V30 33 1 32 34
M  V30 34 2 33 35
M  V30 35 2 34 36
M  V30 36 1 8 9
M  V30 37 1 19 20
M  V30 38 1 22 23
M  V30 39 1 29 30
M  V30 40 1 35 36
M  V30 END BOND
M  V30 BEGIN COLLECTION
M  V30 MDLV30/STEABS ATOMS=(1 10)
M  V30 END COLLECTION
M  V30 END CTAB
M  END
>  <Molecule ChEMBL ID>
CHEMBL3695791

>  <Smiles>
C[C@H](NC(=O)c1ccc2c(ccn2Cc2ccc(-c3ccccc3)cc2)c1)c1ccc([N+](=O)[O-])cc1

>  <IC50_nM>
1000

>  <Assay Description>
Lanthascreen Competitive Binding Assay: The assay was performed according to manufacturer protocol. A mixture of nM GST-PPARG-LBD, 5 nM Tb-GST-antibody, 5 nM Fluormone Pan-PPAR Green, and serial dilutions of the experimental compound, beginning at 10 ׬M downwards, was added to wells of black 384-well low-volume plates (Greiner) to a total volume of 18 ׬L. All dilutions were made in TR-FRET assay buffer C. DMSO at 2% final concentration was used as a no-ligand control. Experiment was performed in triplicate, and incubated for 2 hours in the dark prior to assay read in Perkin Elmer ViewLux ultra HTS microplate reader. FRET signal was measured by excitation at 340 nm and emission at 520 nm for fluorescein and 490 nm for terbium. Fold change over DMSO was calculated using GraphPad Prism Software (La Jolla, Calif.) by calculating 520 nm/490 nm ratio. Graphs were plotted as fold change of FRET signal for compound treatment over DMSO-only control.

$$$$
CHEMBL3678102
Actelion Java MolfileCreator 2.0

  0  0  0  0  0  0              0 V3000
M  V30 BEGIN CTAB
M  V30 COUNTS 32 35 0 0 0
M  V30 BEGIN ATOM
M  V30 1 O 11.9039 2.3485 0.0 0
M  V30 2 N 11.2348 3.0917 0.0 0 CHG=1
M  V30 3 O 11.5438 4.0427 0.0 0 CHG=-1
M  V30 4 C 10.2566 2.8838 0.0 0
M  V30 5 C 9.5875 3.6269 0.0 0
M  V30 6 C 9.9476 1.9327 0.0 0
M  V30 7 C 8.6094 3.419 0.0 0
M  V30 8 C 8.9695 1.7248 0.0 0
M  V30 9 C 8.3003 2.4679 0.0 0
M  V30 10 C 7.3222 2.26 0.0 0
M  V30 11 O 6.6531 3.0032 0.0 0
M  V30 12 N 7.0132 1.309 0.0 0
M  V30 13 C 6.0621 0.9999 0.0 0
M  V30 14 C 7.601 0.5 0.0 0
M  V30 15 C 6.0621 0.0 0.0 0
M  V30 16 C 5.1961 1.4999 0.0 0
M  V30 17 C 7.0132 -0.309 0.0 0
M  V30 18 C 5.1961 -0.5 0.0 0
M  V30 19 C 4.3301 0.9999 0.0 0
M  V30 20 C 4.3301 0.0 0.0 0
M  V30 21 C 3.4641 -0.5 0.0 0
M  V30 22 O 3.4641 -1.5 0.0 0
M  V30 23 N 2.598 0.0 0.0 0
M  V30 24 C 1.732 -0.5 0.0 0 CFG=2
M  V30 25 C 1.732 -1.5 0.0 0
M  V30 26 C 0.866 0.0 0.0 0
M  V30 27 C 0.866 -1.9999 0.0 0
M  V30 28 C 2.598 -2.0 0.0 0
M  V30 29 C 0.0 -0.5 0.0 0
M  V30 30 C 0.866 -2.9999 0.0 0
M  V30 31 C 2.598 -3.0 0.0 0
M  V30 32 C 1.732 -3.5 0.0 0
M  V30 END ATOM
M  V30 BEGIN BOND
M  V30 1 2 1 2
M  V30 2 1 2 3
M  V30 3 1 2 4
M  V30 4 2 4 5
M  V30 5 1 4 6
M  V30 6 1 5 7
M  V30 7 2 6 8
M  V30 8 2 7 9
M  V30 9 1 9 10
M  V30 10 2 10 11
M  V30 11 1 10 12
M  V30 12 1 12 13
M  V30 13 1 12 14
M  V30 14 2 13 15
M  V30 15 1 13 16
M  V30 16 2 14 17
M  V30 17 1 15 18
M  V30 18 2 16 19
M  V30 19 2 18 20
M  V30 20 1 20 21
M  V30 21 2 21 22
M  V30 22 1 21 23
M  V30 23 1 24 23 CFG=3
M  V30 24 1 24 25
M  V30 25 1 24 26
M  V30 26 2 25 27
M  V30 27 1 25 28
M  V30 28 1 26 29
M  V30 29 1 27 30
M  V30 30 2 28 31
M  V30 31 2 30 32
M  V30 32 1 8 9
M  V30 33 1 15 17
M  V30 34 1 19 20
M  V30 35 1 31 32
M  V30 END BOND
M  V30 BEGIN COLLECTION
M  V30 MDLV30/STERAC1 ATOMS=(1 24)
M  V30 END COLLECTION
M  V30 END CTAB
M  END
>  <Molecule ChEMBL ID>
CHEMBL3678102

>  <Smiles>
CCC(NC(=O)c1ccc2c(ccn2C(=O)c2ccc([N+](=O)[O-])cc2)c1)c1ccccc1

>  <IC50_nM>
1000

>  <Assay Description>
Lanthascreen Competitive Binding Assay: The assay was performed according to manufacturer protocol. A mixture of 5 nM GST-PPARG-LBD, 5 nM Tb-GST-antibody, 5 nM Fluormone Pan- PPAR Green, and serial dilutions of the experimental compound, beginning at 10 ׬� downwards, was added to wells of black 384-well low- volume plates (Greiner) to a total volume of 18 xL. All dilutions were made in TR-FRET assay buffer C. DMSO at 2% final concentration was used as a no-ligand control. Experiment was performed in triplicate, and incubated for 2 hours in the dark prior to assay read in Perkin Elmer ViewLux ultra HTS microplate reader. FRET signal was measured by excitation at 340 nm and emission at 520 nm for fluorescein and 490 nm for terbium.

$$$$
CHEMBL3695799
Actelion Java MolfileCreator 2.0

  0  0  0  0  0  0              0 V3000
M  V30 BEGIN CTAB
M  V30 COUNTS 43 47 0 0 0
M  V30 BEGIN ATOM
M  V30 1 O 9.0932 -4.5 0.0 0
M  V30 2 N 9.0932 -3.0 0.0 0 CHG=1
M  V30 3 O 10.3923 -2.25 0.0 0 CHG=-1
M  V30 4 C 7.7942 -2.2499 0.0 0
M  V30 5 C 7.7942 -0.75 0.0 0
M  V30 6 C 6.4951 -2.9999 0.0 0
M  V30 7 C 6.4951 0.0 0.0 0
M  V30 8 C 5.1961 -2.25 0.0 0
M  V30 9 C 5.1961 -0.75 0.0 0
M  V30 10 C 3.8971 0.0 0.0 0 CFG=1
M  V30 11 N 2.598 -0.75 0.0 0
M  V30 12 C 3.8971 1.5 0.0 0
M  V30 13 C 1.299 0.0 0.0 0
M  V30 14 O 1.299 1.5 0.0 0
M  V30 15 C 0.0 -0.75 0.0 0
M  V30 16 C 0.0 -2.2499 0.0 0
M  V30 17 C -1.299 0.0 0.0 0
M  V30 18 C -1.299 -2.9999 0.0 0
M  V30 19 C -2.598 -0.7499 0.0 0
M  V30 20 C -2.598 -2.2499 0.0 0
M  V30 21 C -1.6109 -4.4672 0.0 0
M  V30 22 N -3.7127 -3.2536 0.0 0
M  V30 23 C -3.1026 -4.624 0.0 0
M  V30 24 C -5.18 -2.9418 0.0 0
M  V30 25 C -6.1837 -4.0565 0.0 0
M  V30 26 C -7.6509 -3.7446 0.0 0
M  V30 27 C -5.7201 -5.4831 0.0 0
M  V30 28 C -8.6546 -4.8593 0.0 0
M  V30 29 C -6.7238 -6.5978 0.0 0
M  V30 30 C -8.1911 -6.2859 0.0 0
M  V30 31 C -9.1947 -7.4006 0.0 0
M  V30 32 C -10.662 -7.0888 0.0 0
M  V30 33 C -8.7312 -8.8272 0.0 0
M  V30 34 C -11.1255 -5.6622 0.0 0
M  V30 35 C -11.6657 -8.2035 0.0 0
M  V30 36 C -9.7349 -9.9419 0.0 0
M  V30 37 O -12.5927 -5.3503 0.0 0
M  V30 38 O -10.1218 -4.5475 0.0 0
M  V30 39 C -11.2021 -9.6301 0.0 0
M  V30 40 C -10.5853 -3.1209 0.0 0
M  V30 41 C -12.0119 -3.5844 0.0 0
M  V30 42 C -11.0489 -1.6943 0.0 0
M  V30 43 C -9.1587 -2.6574 0.0 0
M  V30 END ATOM
M  V30 BEGIN BOND
M  V30 1 2 1 2
M  V30 2 1 2 3
M  V30 3 1 2 4
M  V30 4 2 4 5
M  V30 5 1 4 6
M  V30 6 1 5 7
M  V30 7 2 6 8
M  V30 8 2 7 9
M  V30 9 1 9 10
M  V30 10 1 10 11
M  V30 11 1 10 12 CFG=1
M  V30 12 1 11 13
M  V30 13 2 13 14
M  V30 14 1 13 15
M  V30 15 2 15 16
M  V30 16 1 15 17
M  V30 17 1 16 18
M  V30 18 2 17 19
M  V30 19 2 18 20
M  V30 20 1 18 21
M  V30 21 1 20 22
M  V30 22 2 21 23
M  V30 23 1 22 24
M  V30 24 1 24 25
M  V30 25 2 25 26
M  V30 26 1 25 27
M  V30 27 1 26 28
M  V30 28 2 27 29
M  V30 29 2 28 30
M  V30 30 1 30 31
M  V30 31 2 31 32
M  V30 32 1 31 33
M  V30 33 1 32 34
M  V30 34 1 32 35
M  V30 35 2 33 36
M  V30 36 2 34 37
M  V30 37 1 34 38
M  V30 38 2 35 39
M  V30 39 1 38 40
M  V30 40 1 40 41
M  V30 41 1 40 42
M  V30 42 1 40 43
M  V30 43 1 8 9
M  V30 44 1 19 20
M  V30 45 1 22 23
M  V30 46 1 29 30
M  V30 47 1 36 39
M  V30 END BOND
M  V30 BEGIN COLLECTION
M  V30 MDLV30/STEABS ATOMS=(1 10)
M  V30 END COLLECTION
M  V30 END CTAB
M  END
>  <Molecule ChEMBL ID>
CHEMBL3695799

>  <Smiles>
C[C@H](NC(=O)c1ccc2c(ccn2Cc2ccc(-c3ccccc3C(=O)OC(C)(C)C)cc2)c1)c1ccc([N+](=O)[O-])cc1

>  <IC50_nM>
1000

>  <Assay Description>
Lanthascreen Competitive Binding Assay: The assay was performed according to manufacturer protocol. A mixture of nM GST-PPARG-LBD, 5 nM Tb-GST-antibody, 5 nM Fluormone Pan-PPAR Green, and serial dilutions of the experimental compound, beginning at 10 ׬M downwards, was added to wells of black 384-well low-volume plates (Greiner) to a total volume of 18 ׬L. All dilutions were made in TR-FRET assay buffer C. DMSO at 2% final concentration was used as a no-ligand control. Experiment was performed in triplicate, and incubated for 2 hours in the dark prior to assay read in Perkin Elmer ViewLux ultra HTS microplate reader. FRET signal was measured by excitation at 340 nm and emission at 520 nm for fluorescein and 490 nm for terbium. Fold change over DMSO was calculated using GraphPad Prism Software (La Jolla, Calif.) by calculating 520 nm/490 nm ratio. Graphs were plotted as fold change of FRET signal for compound treatment over DMSO-only control.

$$$$
CHEMBL3678091
Actelion Java MolfileCreator 2.0

  0  0  0  0  0  0              0 V3000
M  V30 BEGIN CTAB
M  V30 COUNTS 32 36 0 0 0
M  V30 BEGIN ATOM
M  V30 1 F 8.8737 -1.5453 0.0 0
M  V30 2 C 8.5647 -2.4964 0.0 0
M  V30 3 C 7.5865 -2.7043 0.0 0
M  V30 4 C 9.2338 -3.2395 0.0 0
M  V30 5 C 7.2775 -3.6554 0.0 0
M  V30 6 C 6.9174 -1.9612 0.0 0
M  V30 7 C 8.9248 -4.1906 0.0 0
M  V30 8 C 7.9466 -4.3985 0.0 0
M  V30 9 N 5.9392 -2.1691 0.0 0
M  V30 10 F 9.5939 -4.9337 0.0 0
M  V30 11 C 5.1961 -1.4999 0.0 0
M  V30 12 C 5.5325 -3.0826 0.0 0
M  V30 13 C 4.3301 -1.9999 0.0 0
M  V30 14 C 5.1961 -0.4999 0.0 0
M  V30 15 C 4.538 -2.9781 0.0 0
M  V30 16 C 3.4641 -1.5 0.0 0
M  V30 17 C 4.3301 0.0 0.0 0
M  V30 18 C 3.4641 -0.5 0.0 0
M  V30 19 C 2.598 0.0 0.0 0
M  V30 20 O 2.598 1.0 0.0 0
M  V30 21 N 1.732 -0.5 0.0 0
M  V30 22 C 0.866 0.0 0.0 0
M  V30 23 C 0.0 -0.5 0.0 0 CFG=2
M  V30 24 O -0.866 0.0 0.0 0
M  V30 25 C 0.0 -1.4999 0.0 0
M  V30 26 C -1.732 -0.4999 0.0 0
M  V30 27 O -0.866 -1.9999 0.0 0
M  V30 28 C -1.732 -1.4999 0.0 0
M  V30 29 C -2.598 0.0 0.0 0
M  V30 30 C -2.598 -1.9999 0.0 0
M  V30 31 C -3.4641 -0.4999 0.0 0
M  V30 32 C -3.4641 -1.4999 0.0 0
M  V30 END ATOM
M  V30 BEGIN BOND
M  V30 1 1 1 2
M  V30 2 2 2 3
M  V30 3 1 2 4
M  V30 4 1 3 5
M  V30 5 1 3 6
M  V30 6 2 4 7
M  V30 7 2 5 8
M  V30 8 1 6 9
M  V30 9 1 7 10
M  V30 10 1 9 11
M  V30 11 1 9 12
M  V30 12 2 11 13
M  V30 13 1 11 14
M  V30 14 2 12 15
M  V30 15 1 13 16
M  V30 16 2 14 17
M  V30 17 2 16 18
M  V30 18 1 18 19
M  V30 19 2 19 20
M  V30 20 1 19 21
M  V30 21 1 21 22
M  V30 22 1 23 22 CFG=1
M  V30 23 1 23 24
M  V30 24 1 23 25
M  V30 25 1 24 26
M  V30 26 1 25 27
M  V30 27 2 26 28
M  V30 28 1 26 29
M  V30 29 1 28 30
M  V30 30 2 29 31
M  V30 31 2 30 32
M  V30 32 1 7 8
M  V30 33 1 13 15
M  V30 34 1 17 18
M  V30 35 1 27 28
M  V30 36 1 31 32
M  V30 END BOND
M  V30 BEGIN COLLECTION
M  V30 MDLV30/STERAC1 ATOMS=(1 23)
M  V30 END COLLECTION
M  V30 END CTAB
M  END
>  <Molecule ChEMBL ID>
CHEMBL3678091

>  <Smiles>
O=C(NCC1COc2ccccc2O1)c1ccc2c(ccn2Cc2ccc(F)cc2F)c1

>  <IC50_nM>
1000

>  <Assay Description>
Lanthascreen Competitive Binding Assay: The assay was performed according to manufacturer protocol. A mixture of 5 nM GST-PPARG-LBD, 5 nM Tb-GST-antibody, 5 nM Fluormone Pan- PPAR Green, and serial dilutions of the experimental compound, beginning at 10 ׬� downwards, was added to wells of black 384-well low- volume plates (Greiner) to a total volume of 18 xL. All dilutions were made in TR-FRET assay buffer C. DMSO at 2% final concentration was used as a no-ligand control. Experiment was performed in triplicate, and incubated for 2 hours in the dark prior to assay read in Perkin Elmer ViewLux ultra HTS microplate reader. FRET signal was measured by excitation at 340 nm and emission at 520 nm for fluorescein and 490 nm for terbium.

$$$$
CHEMBL3695914
Actelion Java MolfileCreator 2.0

  0  0  0  0  0  0              0 V3000
M  V30 BEGIN CTAB
M  V30 COUNTS 39 43 0 0 0
M  V30 BEGIN ATOM
M  V30 1 O 6.2419 7.3426 0.0 0
M  V30 2 C 5.9328 6.3916 0.0 0
M  V30 3 O 4.9547 6.1837 0.0 0
M  V30 4 C 6.602 5.6484 0.0 0
M  V30 5 C 6.293 4.6974 0.0 0
M  V30 6 C 7.5801 5.8563 0.0 0
M  V30 7 C 6.9621 3.9542 0.0 0
M  V30 8 C 8.2493 5.1132 0.0 0
M  V30 9 C 7.9402 4.1621 0.0 0
M  V30 10 C 8.6094 3.419 0.0 0
M  V30 11 C 8.3003 2.4679 0.0 0
M  V30 12 C 9.5875 3.6269 0.0 0
M  V30 13 C 8.9695 1.7248 0.0 0
M  V30 14 C 7.3222 2.26 0.0 0
M  V30 15 C 10.2566 2.8838 0.0 0
M  V30 16 C 9.9476 1.9327 0.0 0
M  V30 17 N 7.0132 1.309 0.0 0
M  V30 18 C 6.0621 0.9999 0.0 0
M  V30 19 C 7.601 0.5 0.0 0
M  V30 20 C 6.0621 0.0 0.0 0
M  V30 21 C 5.1961 1.4999 0.0 0
M  V30 22 C 7.0132 -0.309 0.0 0
M  V30 23 C 8.601 0.5 0.0 0
M  V30 24 C 5.1961 -0.5 0.0 0
M  V30 25 C 4.3301 0.9999 0.0 0
M  V30 26 C 7.3222 -1.26 0.0 0
M  V30 27 C 4.3301 0.0 0.0 0
M  V30 28 C 3.4641 -0.5 0.0 0
M  V30 29 O 3.4641 -1.5 0.0 0
M  V30 30 N 2.598 0.0 0.0 0
M  V30 31 C 1.732 -0.5 0.0 0 CFG=2
M  V30 32 C 1.732 -1.5 0.0 0
M  V30 33 C 0.866 0.0 0.0 0
M  V30 34 C 0.866 -1.9999 0.0 0
M  V30 35 C 2.598 -2.0 0.0 0
M  V30 36 C 0.0 -0.5 0.0 0
M  V30 37 C 0.866 -2.9999 0.0 0
M  V30 38 C 2.598 -3.0 0.0 0
M  V30 39 C 1.732 -3.5 0.0 0
M  V30 END ATOM
M  V30 BEGIN BOND
M  V30 1 2 1 2
M  V30 2 1 2 3
M  V30 3 1 2 4
M  V30 4 2 4 5
M  V30 5 1 4 6
M  V30 6 1 5 7
M  V30 7 2 6 8
M  V30 8 2 7 9
M  V30 9 1 9 10
M  V30 10 2 10 11
M  V30 11 1 10 12
M  V30 12 1 11 13
M  V30 13 1 11 14
M  V30 14 2 12 15
M  V30 15 2 13 16
M  V30 16 1 14 17
M  V30 17 1 17 18
M  V30 18 1 17 19
M  V30 19 2 18 20
M  V30 20 1 18 21
M  V30 21 2 19 22
M  V30 22 1 19 23
M  V30 23 1 20 24
M  V30 24 2 21 25
M  V30 25 1 22 26
M  V30 26 2 24 27
M  V30 27 1 27 28
M  V30 28 2 28 29
M  V30 29 1 28 30
M  V30 30 1 31 30 CFG=3
M  V30 31 1 31 32
M  V30 32 1 31 33
M  V30 33 2 32 34
M  V30 34 1 32 35
M  V30 35 1 33 36
M  V30 36 1 34 37
M  V30 37 2 35 38
M  V30 38 2 37 39
M  V30 39 1 8 9
M  V30 40 1 15 16
M  V30 41 1 20 22
M  V30 42 1 25 27
M  V30 43 1 38 39
M  V30 END BOND
M  V30 BEGIN COLLECTION
M  V30 MDLV30/STEABS ATOMS=(1 31)
M  V30 END COLLECTION
M  V30 END CTAB
M  END
>  <Molecule ChEMBL ID>
CHEMBL3695914

>  <Smiles>
CC[C@H](NC(=O)c1ccc2c(c1)c(C)c(C)n2Cc1ccccc1-c1ccc(C(=O)O)cc1)c1ccccc1

>  <IC50_nM>
1000

>  <Assay Description>
Lanthascreen Competitive Binding Assay: The assay was performed according to manufacturer protocol. A mixture of nM GST-PPARG-LBD, 5 nM Tb-GST-antibody, 5 nM Fluormone Pan-PPAR Green, and serial dilutions of the experimental compound, beginning at 10 ׬M downwards, was added to wells of black 384-well low-volume plates (Greiner) to a total volume of 18 ׬L. All dilutions were made in TR-FRET assay buffer C. DMSO at 2% final concentration was used as a no-ligand control. Experiment was performed in triplicate, and incubated for 2 hours in the dark prior to assay read in Perkin Elmer ViewLux ultra HTS microplate reader. FRET signal was measured by excitation at 340 nm and emission at 520 nm for fluorescein and 490 nm for terbium. Fold change over DMSO was calculated using GraphPad Prism Software (La Jolla, Calif.) by calculating 520 nm/490 nm ratio. Graphs were plotted as fold change of FRET signal for compound treatment over DMSO-only control.

$$$$
CHEMBL3699391
Actelion Java MolfileCreator 2.0

  0  0  0  0  0  0              0 V3000
M  V30 BEGIN CTAB
M  V30 COUNTS 46 50 0 0 0
M  V30 BEGIN ATOM
M  V30 1 S 16.3217 -5.6622 0.0 0
M  V30 2 O 17.4363 -4.6585 0.0 0
M  V30 3 O 17.7482 -6.1257 0.0 0
M  V30 4 N 15.318 -4.5475 0.0 0
M  V30 5 C 15.8581 -7.0888 0.0 0
M  V30 6 C 15.7815 -3.1209 0.0 0
M  V30 7 C 14.3909 -7.4007 0.0 0
M  V30 8 C 16.8618 -8.2035 0.0 0
M  V30 9 C 17.2081 -3.5844 0.0 0
M  V30 10 C 16.245 -1.6943 0.0 0
M  V30 11 C 14.3549 -2.6574 0.0 0
M  V30 12 C 13.3872 -6.2859 0.0 0
M  V30 13 C 13.9274 -8.8272 0.0 0
M  V30 14 C 16.3983 -9.6301 0.0 0
M  V30 15 C 13.8507 -4.8593 0.0 0
M  V30 16 C 11.92 -6.5978 0.0 0
M  V30 17 C 14.9311 -9.942 0.0 0
M  V30 18 C 12.847 -3.7446 0.0 0
M  V30 19 C 10.9163 -5.4831 0.0 0
M  V30 20 C 11.3798 -4.0565 0.0 0
M  V30 21 C 10.3761 -2.9418 0.0 0
M  V30 22 N 8.9089 -3.2536 0.0 0
M  V30 23 C 7.7942 -2.25 0.0 0
M  V30 24 C 8.2988 -4.624 0.0 0
M  V30 25 C 6.4951 -3.0 0.0 0
M  V30 26 C 7.7942 -0.75 0.0 0
M  V30 27 C 6.807 -4.4672 0.0 0
M  V30 28 C 9.0488 -5.923 0.0 0
M  V30 29 C 5.1961 -2.25 0.0 0
M  V30 30 C 6.4951 0.0 0.0 0
M  V30 31 C 5.8033 -5.5819 0.0 0
M  V30 32 C 5.1961 -0.75 0.0 0
M  V30 33 C 3.8971 0.0 0.0 0
M  V30 34 O 3.8971 1.5 0.0 0
M  V30 35 N 2.598 -0.75 0.0 0
M  V30 36 C 1.299 0.0 0.0 0 CFG=2
M  V30 37 C 1.299 1.5 0.0 0
M  V30 38 C 0.0 -0.75 0.0 0
M  V30 39 C 2.598 2.25 0.0 0
M  V30 40 C 0.0 2.25 0.0 0
M  V30 41 C 2.598 3.75 0.0 0
M  V30 42 C 0.0 3.75 0.0 0
M  V30 43 C 1.299 4.5 0.0 0
M  V30 44 C 3.8971 4.5 0.0 0
M  V30 45 C 5.1961 3.75 0.0 0
M  V30 46 C 3.8971 6.0 0.0 0
M  V30 END ATOM
M  V30 BEGIN BOND
M  V30 1 2 1 2
M  V30 2 2 1 3
M  V30 3 1 1 4
M  V30 4 1 1 5
M  V30 5 1 4 6
M  V30 6 2 5 7
M  V30 7 1 5 8
M  V30 8 1 6 9
M  V30 9 1 6 10
M  V30 10 1 6 11
M  V30 11 1 7 12
M  V30 12 1 7 13
M  V30 13 2 8 14
M  V30 14 2 12 15
M  V30 15 1 12 16
M  V30 16 2 13 17
M  V30 17 1 15 18
M  V30 18 2 16 19
M  V30 19 2 18 20
M  V30 20 1 20 21
M  V30 21 1 21 22
M  V30 22 1 22 23
M  V30 23 1 22 24
M  V30 24 2 23 25
M  V30 25 1 23 26
M  V30 26 2 24 27
M  V30 27 1 24 28
M  V30 28 1 25 29
M  V30 29 2 26 30
M  V30 30 1 27 31
M  V30 31 2 29 32
M  V30 32 1 32 33
M  V30 33 2 33 34
M  V30 34 1 33 35
M  V30 35 1 35 36
M  V30 36 1 36 37
M  V30 37 1 36 38 CFG=1
M  V30 38 2 37 39
M  V30 39 1 37 40
M  V30 40 1 39 41
M  V30 41 2 40 42
M  V30 42 2 41 43
M  V30 43 1 41 44
M  V30 44 1 44 45
M  V30 45 1 44 46
M  V30 46 1 14 17
M  V30 47 1 19 20
M  V30 48 1 25 27
M  V30 49 1 30 32
M  V30 50 1 42 43
M  V30 END BOND
M  V30 BEGIN COLLECTION
M  V30 MDLV30/STEABS ATOMS=(1 36)
M  V30 END COLLECTION
M  V30 END CTAB
M  END
>  <Molecule ChEMBL ID>
CHEMBL3699391

>  <Smiles>
Cc1c(C)n(Cc2ccc(-c3ccccc3S(=O)(=O)NC(C)(C)C)cc2)c2ccc(C(=O)N[C@@H](C)c3cccc(C(C)C)c3)cc12

>  <IC50_nM>
1000

>  <Assay Description>
Lanthascreen Competitive Binding Assay: The assay was performed according to manufacturer protocol. A mixture of nM GST-PPARG-LBD, 5 nM Tb-GST-antibody, 5 nM Fluormone Pan-PPAR Green, and serial dilutions of the experimental compound, beginning at 10 ׬M downwards, was added to wells of black 384-well low-volume plates (Greiner) to a total volume of 18 ׬L. All dilutions were made in TR-FRET assay buffer C. DMSO at 2% final concentration was used as a no-ligand control. Experiment was performed in triplicate, and incubated for 2 hours in the dark prior to assay read in Perkin Elmer ViewLux ultra HTS microplate reader. FRET signal was measured by excitation at 340 nm and emission at 520 nm for fluorescein and 490 nm for terbium. Fold change over DMSO was calculated using GraphPad Prism Software (La Jolla, Calif.) by calculating 520 nm/490 nm ratio. Graphs were plotted as fold change of FRET signal for compound treatment over DMSO-only control.

$$$$
CHEMBL3678081
Actelion Java MolfileCreator 2.0

  0  0  0  0  0  0              0 V3000
M  V30 BEGIN CTAB
M  V30 COUNTS 33 36 0 0 0
M  V30 BEGIN ATOM
M  V30 1 F 8.8737 -1.5453 0.0 0
M  V30 2 C 8.5647 -2.4964 0.0 0
M  V30 3 C 7.5865 -2.7043 0.0 0
M  V30 4 C 9.2338 -3.2395 0.0 0
M  V30 5 C 7.2775 -3.6554 0.0 0
M  V30 6 C 6.9174 -1.9612 0.0 0
M  V30 7 C 8.9248 -4.1906 0.0 0
M  V30 8 C 7.9466 -4.3985 0.0 0
M  V30 9 N 5.9392 -2.1691 0.0 0
M  V30 10 F 9.5939 -4.9337 0.0 0
M  V30 11 C 5.1961 -1.4999 0.0 0
M  V30 12 C 5.5325 -3.0826 0.0 0
M  V30 13 C 4.3301 -1.9999 0.0 0
M  V30 14 C 5.1961 -0.4999 0.0 0
M  V30 15 C 4.538 -2.9781 0.0 0
M  V30 16 C 3.4641 -1.5 0.0 0
M  V30 17 C 4.3301 0.0 0.0 0
M  V30 18 C 3.4641 -0.5 0.0 0
M  V30 19 C 2.598 0.0 0.0 0
M  V30 20 O 2.598 1.0 0.0 0
M  V30 21 N 1.732 -0.5 0.0 0
M  V30 22 C 0.866 0.0 0.0 0
M  V30 23 C 0.0 -0.5 0.0 0
M  V30 24 C -0.866 0.0 0.0 0
M  V30 25 C 0.0 -1.4999 0.0 0
M  V30 26 C -1.732 -0.4999 0.0 0
M  V30 27 C -0.866 -1.9999 0.0 0
M  V30 28 O -2.598 0.0 0.0 0
M  V30 29 C -1.732 -1.4999 0.0 0
M  V30 30 C -3.4641 -0.4999 0.0 0
M  V30 31 F -2.9641 -1.366 0.0 0
M  V30 32 F -4.3301 -0.9999 0.0 0
M  V30 33 F -3.9641 0.366 0.0 0
M  V30 END ATOM
M  V30 BEGIN BOND
M  V30 1 1 1 2
M  V30 2 2 2 3
M  V30 3 1 2 4
M  V30 4 1 3 5
M  V30 5 1 3 6
M  V30 6 2 4 7
M  V30 7 2 5 8
M  V30 8 1 6 9
M  V30 9 1 7 10
M  V30 10 1 9 11
M  V30 11 1 9 12
M  V30 12 2 11 13
M  V30 13 1 11 14
M  V30 14 2 12 15
M  V30 15 1 13 16
M  V30 16 2 14 17
M  V30 17 2 16 18
M  V30 18 1 18 19
M  V30 19 2 19 20
M  V30 20 1 19 21
M  V30 21 1 21 22
M  V30 22 1 22 23
M  V30 23 2 23 24
M  V30 24 1 23 25
M  V30 25 1 24 26
M  V30 26 2 25 27
M  V30 27 1 26 28
M  V30 28 2 26 29
M  V30 29 1 28 30
M  V30 30 1 30 31
M  V30 31 1 30 32
M  V30 32 1 30 33
M  V30 33 1 7 8
M  V30 34 1 13 15
M  V30 35 1 17 18
M  V30 36 1 27 29
M  V30 END BOND
M  V30 END CTAB
M  END
>  <Molecule ChEMBL ID>
CHEMBL3678081

>  <Smiles>
O=C(NCc1cccc(OC(F)(F)F)c1)c1ccc2c(ccn2Cc2ccc(F)cc2F)c1

>  <IC50_nM>
1000

>  <Assay Description>
Lanthascreen Competitive Binding Assay: The assay was performed according to manufacturer protocol. A mixture of 5 nM GST-PPARG-LBD, 5 nM Tb-GST-antibody, 5 nM Fluormone Pan- PPAR Green, and serial dilutions of the experimental compound, beginning at 10 ׬� downwards, was added to wells of black 384-well low- volume plates (Greiner) to a total volume of 18 xL. All dilutions were made in TR-FRET assay buffer C. DMSO at 2% final concentration was used as a no-ligand control. Experiment was performed in triplicate, and incubated for 2 hours in the dark prior to assay read in Perkin Elmer ViewLux ultra HTS microplate reader. FRET signal was measured by excitation at 340 nm and emission at 520 nm for fluorescein and 490 nm for terbium.

$$$$
CHEMBL3699393
Actelion Java MolfileCreator 2.0

  0  0  0  0  0  0              0 V3000
M  V30 BEGIN CTAB
M  V30 COUNTS 45 49 0 0 0
M  V30 BEGIN ATOM
M  V30 1 S 3.8971 0.0 0.0 0
M  V30 2 O 4.6471 1.299 0.0 0
M  V30 3 O 3.1471 1.299 0.0 0
M  V30 4 N 2.598 -0.75 0.0 0
M  V30 5 C 5.1961 -0.75 0.0 0
M  V30 6 C 1.299 0.0 0.0 0
M  V30 7 C 5.1961 -2.25 0.0 0
M  V30 8 C 6.4951 0.0 0.0 0
M  V30 9 O 1.299 1.5 0.0 0
M  V30 10 C 0.0 -0.75 0.0 0
M  V30 11 C 3.8971 -3.0 0.0 0
M  V30 12 C 6.4951 -3.0 0.0 0
M  V30 13 C 7.7942 -0.75 0.0 0
M  V30 14 C 2.598 -2.25 0.0 0
M  V30 15 C 3.8971 -4.5 0.0 0
M  V30 16 C 7.7942 -2.25 0.0 0
M  V30 17 C 1.299 -3.0 0.0 0
M  V30 18 C 2.598 -5.25 0.0 0
M  V30 19 C 1.299 -4.5 0.0 0
M  V30 20 C 0.0 -5.25 0.0 0
M  V30 21 N 0.0 -6.75 0.0 0
M  V30 22 C -1.2135 -7.6316 0.0 0
M  V30 23 C 1.2135 -7.6316 0.0 0
M  V30 24 C -0.75 -9.0582 0.0 0
M  V30 25 C -2.6807 -7.3198 0.0 0
M  V30 26 C 0.75 -9.0582 0.0 0
M  V30 27 C 2.6401 -7.1681 0.0 0
M  V30 28 C -1.7536 -10.1729 0.0 0
M  V30 29 C -3.6844 -8.4345 0.0 0
M  V30 30 C 1.6316 -10.2717 0.0 0
M  V30 31 C -3.2209 -9.8611 0.0 0
M  V30 32 C -4.2246 -10.9758 0.0 0
M  V30 33 O -5.6918 -10.6639 0.0 0
M  V30 34 N -3.761 -12.4024 0.0 0
M  V30 35 C -4.7647 -13.5171 0.0 0 CFG=2
M  V30 36 C -6.232 -13.2052 0.0 0
M  V30 37 C -4.3012 -14.9437 0.0 0
M  V30 38 C -6.6955 -11.7786 0.0 0
M  V30 39 C -7.2357 -14.3199 0.0 0
M  V30 40 C -8.1627 -11.4668 0.0 0
M  V30 41 C -8.7029 -14.0081 0.0 0
M  V30 42 C -9.1664 -12.5815 0.0 0
M  V30 43 C -8.6262 -10.0402 0.0 0
M  V30 44 C -7.6225 -8.9255 0.0 0
M  V30 45 C -10.0935 -9.7283 0.0 0
M  V30 END ATOM
M  V30 BEGIN BOND
M  V30 1 2 1 2
M  V30 2 2 1 3
M  V30 3 1 1 4
M  V30 4 1 1 5
M  V30 5 1 4 6
M  V30 6 2 5 7
M  V30 7 1 5 8
M  V30 8 2 6 9
M  V30 9 1 6 10
M  V30 10 1 7 11
M  V30 11 1 7 12
M  V30 12 2 8 13
M  V30 13 2 11 14
M  V30 14 1 11 15
M  V30 15 2 12 16
M  V30 16 1 14 17
M  V30 17 2 15 18
M  V30 18 2 17 19
M  V30 19 1 19 20
M  V30 20 1 20 21
M  V30 21 1 21 22
M  V30 22 1 21 23
M  V30 23 2 22 24
M  V30 24 1 22 25
M  V30 25 2 23 26
M  V30 26 1 23 27
M  V30 27 1 24 28
M  V30 28 2 25 29
M  V30 29 1 26 30
M  V30 30 2 28 31
M  V30 31 1 31 32
M  V30 32 2 32 33
M  V30 33 1 32 34
M  V30 34 1 34 35
M  V30 35 1 35 36
M  V30 36 1 35 37 CFG=1
M  V30 37 2 36 38
M  V30 38 1 36 39
M  V30 39 1 38 40
M  V30 40 2 39 41
M  V30 41 2 40 42
M  V30 42 1 40 43
M  V30 43 1 43 44
M  V30 44 1 43 45
M  V30 45 1 13 16
M  V30 46 1 18 19
M  V30 47 1 24 26
M  V30 48 1 29 31
M  V30 49 1 41 42
M  V30 END BOND
M  V30 BEGIN COLLECTION
M  V30 MDLV30/STEABS ATOMS=(1 35)
M  V30 END COLLECTION
M  V30 END CTAB
M  END
>  <Molecule ChEMBL ID>
CHEMBL3699393

>  <Smiles>
CC(=O)NS(=O)(=O)c1ccccc1-c1ccc(Cn2c(C)c(C)c3cc(C(=O)N[C@@H](C)c4cccc(C(C)C)c4)ccc32)cc1

>  <IC50_nM>
1000

>  <Assay Description>
Lanthascreen Competitive Binding Assay: The assay was performed according to manufacturer protocol. A mixture of nM GST-PPARG-LBD, 5 nM Tb-GST-antibody, 5 nM Fluormone Pan-PPAR Green, and serial dilutions of the experimental compound, beginning at 10 ׬M downwards, was added to wells of black 384-well low-volume plates (Greiner) to a total volume of 18 ׬L. All dilutions were made in TR-FRET assay buffer C. DMSO at 2% final concentration was used as a no-ligand control. Experiment was performed in triplicate, and incubated for 2 hours in the dark prior to assay read in Perkin Elmer ViewLux ultra HTS microplate reader. FRET signal was measured by excitation at 340 nm and emission at 520 nm for fluorescein and 490 nm for terbium. Fold change over DMSO was calculated using GraphPad Prism Software (La Jolla, Calif.) by calculating 520 nm/490 nm ratio. Graphs were plotted as fold change of FRET signal for compound treatment over DMSO-only control.

$$$$
CHEMBL3695800
Actelion Java MolfileCreator 2.0

  0  0  0  0  0  0              0 V3000
M  V30 BEGIN CTAB
M  V30 COUNTS 37 41 0 0 0
M  V30 BEGIN ATOM
M  V30 1 O 6.0621 -3.0 0.0 0
M  V30 2 N 6.0621 -1.9999 0.0 0 CHG=1
M  V30 3 O 6.9282 -1.5 0.0 0 CHG=-1
M  V30 4 C 5.1961 -1.4999 0.0 0
M  V30 5 C 5.1961 -0.5 0.0 0
M  V30 6 C 4.3301 -1.9999 0.0 0
M  V30 7 C 4.3301 0.0 0.0 0
M  V30 8 C 3.4641 -1.5 0.0 0
M  V30 9 C 3.4641 -0.5 0.0 0
M  V30 10 C 2.598 0.0 0.0 0 CFG=1
M  V30 11 N 1.732 -0.5 0.0 0
M  V30 12 C 2.598 1.0 0.0 0
M  V30 13 C 0.866 0.0 0.0 0
M  V30 14 O 0.866 1.0 0.0 0
M  V30 15 C 0.0 -0.5 0.0 0
M  V30 16 C 0.0 -1.4999 0.0 0
M  V30 17 C -0.866 0.0 0.0 0
M  V30 18 C -0.866 -1.9999 0.0 0
M  V30 19 C -1.732 -0.4999 0.0 0
M  V30 20 C -1.732 -1.4999 0.0 0
M  V30 21 C -1.0739 -2.9781 0.0 0
M  V30 22 N -2.4751 -2.1691 0.0 0
M  V30 23 C -2.0684 -3.0826 0.0 0
M  V30 24 C -3.4533 -1.9612 0.0 0
M  V30 25 C -4.1224 -2.7043 0.0 0
M  V30 26 C -5.1006 -2.4964 0.0 0
M  V30 27 C -3.8134 -3.6554 0.0 0
M  V30 28 C -5.7697 -3.2395 0.0 0
M  V30 29 C -4.4825 -4.3985 0.0 0
M  V30 30 C -5.4607 -4.1906 0.0 0
M  V30 31 C -6.1298 -4.9337 0.0 0
M  V30 32 C -7.108 -4.7258 0.0 0
M  V30 33 C -5.8208 -5.8848 0.0 0
M  V30 34 C -7.7771 -5.469 0.0 0
M  V30 35 C -6.4899 -6.6279 0.0 0
M  V30 36 C -7.4681 -6.42 0.0 0
M  V30 37 C -8.1372 -7.1632 0.0 0
M  V30 END ATOM
M  V30 BEGIN BOND
M  V30 1 2 1 2
M  V30 2 1 2 3
M  V30 3 1 2 4
M  V30 4 2 4 5
M  V30 5 1 4 6
M  V30 6 1 5 7
M  V30 7 2 6 8
M  V30 8 2 7 9
M  V30 9 1 9 10
M  V30 10 1 10 11
M  V30 11 1 10 12 CFG=1
M  V30 12 1 11 13
M  V30 13 2 13 14
M  V30 14 1 13 15
M  V30 15 2 15 16
M  V30 16 1 15 17
M  V30 17 1 16 18
M  V30 18 2 17 19
M  V30 19 2 18 20
M  V30 20 1 18 21
M  V30 21 1 20 22
M  V30 22 2 21 23
M  V30 23 1 22 24
M  V30 24 1 24 25
M  V30 25 2 25 26
M  V30 26 1 25 27
M  V30 27 1 26 28
M  V30 28 2 27 29
M  V30 29 2 28 30
M  V30 30 1 30 31
M  V30 31 2 31 32
M  V30 32 1 31 33
M  V30 33 1 32 34
M  V30 34 2 33 35
M  V30 35 2 34 36
M  V30 36 1 36 37
M  V30 37 1 8 9
M  V30 38 1 19 20
M  V30 39 1 22 23
M  V30 40 1 29 30
M  V30 41 1 35 36
M  V30 END BOND
M  V30 BEGIN COLLECTION
M  V30 MDLV30/STEABS ATOMS=(1 10)
M  V30 END COLLECTION
M  V30 END CTAB
M  END
>  <Molecule ChEMBL ID>
CHEMBL3695800

>  <Smiles>
Cc1ccc(-c2ccc(Cn3ccc4cc(C(=O)N[C@@H](C)c5ccc([N+](=O)[O-])cc5)ccc43)cc2)cc1

>  <IC50_nM>
1000

>  <Assay Description>
Lanthascreen Competitive Binding Assay: The assay was performed according to manufacturer protocol. A mixture of nM GST-PPARG-LBD, 5 nM Tb-GST-antibody, 5 nM Fluormone Pan-PPAR Green, and serial dilutions of the experimental compound, beginning at 10 ׬M downwards, was added to wells of black 384-well low-volume plates (Greiner) to a total volume of 18 ׬L. All dilutions were made in TR-FRET assay buffer C. DMSO at 2% final concentration was used as a no-ligand control. Experiment was performed in triplicate, and incubated for 2 hours in the dark prior to assay read in Perkin Elmer ViewLux ultra HTS microplate reader. FRET signal was measured by excitation at 340 nm and emission at 520 nm for fluorescein and 490 nm for terbium. Fold change over DMSO was calculated using GraphPad Prism Software (La Jolla, Calif.) by calculating 520 nm/490 nm ratio. Graphs were plotted as fold change of FRET signal for compound treatment over DMSO-only control.

$$$$
CHEMBL3695803
Actelion Java MolfileCreator 2.0

  0  0  0  0  0  0              0 V3000
M  V30 BEGIN CTAB
M  V30 COUNTS 39 43 0 0 0
M  V30 BEGIN ATOM
M  V30 1 O 9.0932 -4.5 0.0 0
M  V30 2 N 9.0932 -3.0 0.0 0 CHG=1
M  V30 3 O 10.3923 -2.25 0.0 0 CHG=-1
M  V30 4 C 7.7942 -2.2499 0.0 0
M  V30 5 C 7.7942 -0.75 0.0 0
M  V30 6 C 6.4951 -2.9999 0.0 0
M  V30 7 C 6.4951 0.0 0.0 0
M  V30 8 C 5.1961 -2.25 0.0 0
M  V30 9 C 5.1961 -0.75 0.0 0
M  V30 10 C 3.8971 0.0 0.0 0 CFG=1
M  V30 11 N 2.598 -0.75 0.0 0
M  V30 12 C 3.8971 1.5 0.0 0
M  V30 13 C 1.299 0.0 0.0 0
M  V30 14 O 1.299 1.5 0.0 0
M  V30 15 C 0.0 -0.75 0.0 0
M  V30 16 C 0.0 -2.2499 0.0 0
M  V30 17 C -1.299 0.0 0.0 0
M  V30 18 C -1.299 -2.9999 0.0 0
M  V30 19 C -2.598 -0.7499 0.0 0
M  V30 20 C -2.598 -2.2499 0.0 0
M  V30 21 C -1.6109 -4.4672 0.0 0
M  V30 22 N -3.7127 -3.2536 0.0 0
M  V30 23 C -3.1026 -4.624 0.0 0
M  V30 24 C -5.18 -2.9418 0.0 0
M  V30 25 C -6.1837 -4.0565 0.0 0
M  V30 26 C -7.6509 -3.7446 0.0 0
M  V30 27 C -5.7201 -5.4831 0.0 0
M  V30 28 C -8.6546 -4.8593 0.0 0
M  V30 29 C -6.7238 -6.5978 0.0 0
M  V30 30 C -8.1911 -6.2859 0.0 0
M  V30 31 C -9.1947 -7.4006 0.0 0
M  V30 32 C -10.662 -7.0888 0.0 0
M  V30 33 C -8.7312 -8.8272 0.0 0
M  V30 34 C -11.6657 -8.2035 0.0 0
M  V30 35 C -9.7349 -9.9419 0.0 0
M  V30 36 C -13.1329 -7.8916 0.0 0
M  V30 37 C -11.2021 -9.6301 0.0 0
M  V30 38 O -13.5964 -6.465 0.0 0
M  V30 39 O -14.1366 -9.0063 0.0 0
M  V30 END ATOM
M  V30 BEGIN BOND
M  V30 1 2 1 2
M  V30 2 1 2 3
M  V30 3 1 2 4
M  V30 4 2 4 5
M  V30 5 1 4 6
M  V30 6 1 5 7
M  V30 7 2 6 8
M  V30 8 2 7 9
M  V30 9 1 9 10
M  V30 10 1 10 11
M  V30 11 1 10 12 CFG=1
M  V30 12 1 11 13
M  V30 13 2 13 14
M  V30 14 1 13 15
M  V30 15 2 15 16
M  V30 16 1 15 17
M  V30 17 1 16 18
M  V30 18 2 17 19
M  V30 19 2 18 20
M  V30 20 1 18 21
M  V30 21 1 20 22
M  V30 22 2 21 23
M  V30 23 1 22 24
M  V30 24 1 24 25
M  V30 25 2 25 26
M  V30 26 1 25 27
M  V30 27 1 26 28
M  V30 28 2 27 29
M  V30 29 2 28 30
M  V30 30 1 30 31
M  V30 31 2 31 32
M  V30 32 1 31 33
M  V30 33 1 32 34
M  V30 34 2 33 35
M  V30 35 1 34 36
M  V30 36 2 34 37
M  V30 37 2 36 38
M  V30 38 1 36 39
M  V30 39 1 8 9
M  V30 40 1 19 20
M  V30 41 1 22 23
M  V30 42 1 29 30
M  V30 43 1 35 37
M  V30 END BOND
M  V30 BEGIN COLLECTION
M  V30 MDLV30/STEABS ATOMS=(1 10)
M  V30 END COLLECTION
M  V30 END CTAB
M  END
>  <Molecule ChEMBL ID>
CHEMBL3695803

>  <Smiles>
C[C@H](NC(=O)c1ccc2c(ccn2Cc2ccc(-c3cccc(C(=O)O)c3)cc2)c1)c1ccc([N+](=O)[O-])cc1

>  <IC50_nM>
1000

>  <Assay Description>
Lanthascreen Competitive Binding Assay: The assay was performed according to manufacturer protocol. A mixture of nM GST-PPARG-LBD, 5 nM Tb-GST-antibody, 5 nM Fluormone Pan-PPAR Green, and serial dilutions of the experimental compound, beginning at 10 ׬M downwards, was added to wells of black 384-well low-volume plates (Greiner) to a total volume of 18 ׬L. All dilutions were made in TR-FRET assay buffer C. DMSO at 2% final concentration was used as a no-ligand control. Experiment was performed in triplicate, and incubated for 2 hours in the dark prior to assay read in Perkin Elmer ViewLux ultra HTS microplate reader. FRET signal was measured by excitation at 340 nm and emission at 520 nm for fluorescein and 490 nm for terbium. Fold change over DMSO was calculated using GraphPad Prism Software (La Jolla, Calif.) by calculating 520 nm/490 nm ratio. Graphs were plotted as fold change of FRET signal for compound treatment over DMSO-only control.

$$$$
CHEMBL50755
Actelion Java MolfileCreator 2.0

  0  0  0  0  0  0              0 V3000
M  V30 BEGIN CTAB
M  V30 COUNTS 36 39 0 0 0
M  V30 BEGIN ATOM
M  V30 1 S 7.8987 -2.9945 0.0 0
M  V30 2 C 8.8769 -3.2024 0.0 0
M  V30 3 C 7.7942 -2.0 0.0 0 CFG=2
M  V30 4 O 9.2836 -4.1159 0.0 0
M  V30 5 N 9.3769 -2.3364 0.0 0
M  V30 6 C 6.9282 -1.5 0.0 0
M  V30 7 C 8.7077 -1.5932 0.0 0
M  V30 8 C 6.9282 -0.5 0.0 0
M  V30 9 C 6.0621 -2.0 0.0 0
M  V30 10 O 8.9156 -0.6151 0.0 0
M  V30 11 C 6.0621 0.0 0.0 0
M  V30 12 C 5.1961 -1.5 0.0 0
M  V30 13 O 6.0621 1.0 0.0 0
M  V30 14 C 5.1961 -0.5 0.0 0
M  V30 15 C 5.1961 1.5 0.0 0
M  V30 16 O 4.3301 0.0 0.0 0
M  V30 17 C 3.4641 -0.5 0.0 0
M  V30 18 C 2.598 0.0 0.0 0
M  V30 19 C 1.732 -0.5 0.0 0
M  V30 20 O 0.866 0.0 0.0 0
M  V30 21 C 0.0 -0.5 0.0 0
M  V30 22 C -0.866 0.0 0.0 0
M  V30 23 C 0.0 -1.4999 0.0 0
M  V30 24 C -1.732 -0.4999 0.0 0
M  V30 25 C -0.866 1.0 0.0 0
M  V30 26 C -0.866 -1.9999 0.0 0
M  V30 27 C -1.732 -1.4999 0.0 0
M  V30 28 C 0.0 1.5 0.0 0
M  V30 29 O -2.598 -1.9999 0.0 0
M  V30 30 C 0.0 2.5 0.0 0
M  V30 31 C -2.598 -2.9999 0.0 0
M  V30 32 C -3.4641 -3.4999 0.0 0
M  V30 33 C -1.732 -3.4999 0.0 0
M  V30 34 C -3.4641 -4.4999 0.0 0
M  V30 35 C -1.732 -4.4999 0.0 0
M  V30 36 C -2.598 -4.9999 0.0 0
M  V30 END ATOM
M  V30 BEGIN BOND
M  V30 1 1 1 2
M  V30 2 1 1 3
M  V30 3 2 2 4
M  V30 4 1 2 5
M  V30 5 1 3 6 CFG=3
M  V30 6 1 3 7
M  V30 7 2 6 8
M  V30 8 1 6 9
M  V30 9 2 7 10
M  V30 10 1 8 11
M  V30 11 2 9 12
M  V30 12 1 11 13
M  V30 13 2 11 14
M  V30 14 1 13 15
M  V30 15 1 14 16
M  V30 16 1 16 17
M  V30 17 1 17 18
M  V30 18 1 18 19
M  V30 19 1 19 20
M  V30 20 1 20 21
M  V30 21 2 21 22
M  V30 22 1 21 23
M  V30 23 1 22 24
M  V30 24 1 22 25
M  V30 25 2 23 26
M  V30 26 2 24 27
M  V30 27 1 25 28
M  V30 28 1 27 29
M  V30 29 1 28 30
M  V30 30 1 29 31
M  V30 31 2 31 32
M  V30 32 1 31 33
M  V30 33 1 32 34
M  V30 34 2 33 35
M  V30 35 2 34 36
M  V30 36 1 5 7
M  V30 37 1 12 14
M  V30 38 1 26 27
M  V30 39 1 35 36
M  V30 END BOND
M  V30 BEGIN COLLECTION
M  V30 MDLV30/STERAC1 ATOMS=(1 3)
M  V30 END COLLECTION
M  V30 END CTAB
M  END
>  <Molecule ChEMBL ID>
CHEMBL50755

>  <Smiles>
CCCc1cc(Oc2ccccc2)ccc1OCCCOc1ccc(C2SC(=O)NC2=O)cc1OC

>  <IC50_nM>
1000

>  <Assay Description>
In vitro binding affinity against human PPAR gamma (peroxisome proliferator-activated gamma receptor)

$$$$
CHEMBL3678115
Actelion Java MolfileCreator 2.0

  0  0  0  0  0  0              0 V3000
M  V30 BEGIN CTAB
M  V30 COUNTS 39 42 0 0 0
M  V30 BEGIN ATOM
M  V30 1 O 17.1679 -0.319 0.0 0
M  V30 2 C 16.1642 0.7957 0.0 0
M  V30 3 N 16.6278 2.2222 0.0 0
M  V30 4 C 14.697 0.4838 0.0 0
M  V30 5 C 15.6241 3.337 0.0 0 CFG=2
M  V30 6 C 14.2335 -0.9427 0.0 0
M  V30 7 C 13.6933 1.5985 0.0 0
M  V30 8 C 16.0876 4.7635 0.0 0
M  V30 9 C 14.1568 3.0251 0.0 0
M  V30 10 C 12.7663 -1.2546 0.0 0
M  V30 11 C 12.2261 1.2866 0.0 0
M  V30 12 C 17.5548 5.0754 0.0 0
M  V30 13 C 15.0839 5.8783 0.0 0
M  V30 14 C 11.7626 -0.1398 0.0 0
M  V30 15 C 12.0163 -2.5536 0.0 0
M  V30 16 C 18.0183 6.502 0.0 0
M  V30 17 C 15.5474 7.3048 0.0 0
M  V30 18 N 10.3923 -0.75 0.0 0
M  V30 19 C 10.549 -2.2417 0.0 0
M  V30 20 C 12.6264 -3.9239 0.0 0
M  V30 21 C 17.0146 7.6167 0.0 0
M  V30 22 C 9.0932 0.0 0.0 0
M  V30 23 C 9.4343 -3.2454 0.0 0
M  V30 24 C 17.4782 9.0433 0.0 0
M  V30 25 C 7.7942 -0.75 0.0 0
M  V30 26 C 16.0516 9.5068 0.0 0
M  V30 27 C 17.9417 10.4699 0.0 0
M  V30 28 C 18.9048 8.5798 0.0 0
M  V30 29 C 6.4951 0.0 0.0 0
M  V30 30 C 7.7942 -2.25 0.0 0
M  V30 31 C 5.1961 -0.75 0.0 0
M  V30 32 C 6.4951 -3.0 0.0 0
M  V30 33 O 3.8971 0.0 0.0 0
M  V30 34 C 5.1961 -2.25 0.0 0
M  V30 35 C 2.598 -0.75 0.0 0 CFG=1
M  V30 36 C 1.299 0.0 0.0 0
M  V30 37 C 2.598 -2.25 0.0 0
M  V30 38 O 1.299 1.5 0.0 0
M  V30 39 O 0.0 -0.75 0.0 0
M  V30 END ATOM
M  V30 BEGIN BOND
M  V30 1 2 1 2
M  V30 2 1 2 3
M  V30 3 1 2 4
M  V30 4 1 3 5
M  V30 5 2 4 6
M  V30 6 1 4 7
M  V30 7 1 5 8
M  V30 8 1 5 9 CFG=1
M  V30 9 1 6 10
M  V30 10 2 7 11
M  V30 11 2 8 12
M  V30 12 1 8 13
M  V30 13 2 10 14
M  V30 14 1 10 15
M  V30 15 1 12 16
M  V30 16 2 13 17
M  V30 17 1 14 18
M  V30 18 2 15 19
M  V30 19 1 15 20
M  V30 20 2 16 21
M  V30 21 1 18 22
M  V30 22 1 19 23
M  V30 23 1 21 24
M  V30 24 1 22 25
M  V30 25 1 24 26
M  V30 26 1 24 27
M  V30 27 1 24 28
M  V30 28 2 25 29
M  V30 29 1 25 30
M  V30 30 1 29 31
M  V30 31 2 30 32
M  V30 32 1 31 33
M  V30 33 2 31 34
M  V30 34 1 33 35
M  V30 35 1 35 36
M  V30 36 1 35 37 CFG=3
M  V30 37 2 36 38
M  V30 38 1 36 39
M  V30 39 1 11 14
M  V30 40 1 17 21
M  V30 41 1 18 19
M  V30 42 1 32 34
M  V30 END BOND
M  V30 BEGIN COLLECTION
M  V30 MDLV30/STEABS ATOMS=(2 5 35)
M  V30 END COLLECTION
M  V30 END CTAB
M  END
>  <Molecule ChEMBL ID>
CHEMBL3678115

>  <Smiles>
Cc1c(C)n(Cc2cccc(O[C@H](C)C(=O)O)c2)c2ccc(C(=O)N[C@@H](C)c3ccc(C(C)(C)C)cc3)cc12

>  <IC50_nM>
1000

>  <Assay Description>
Lanthascreen Competitive Binding Assay: The assay was performed according to manufacturer protocol. A mixture of 5 nM GST-PPARG-LBD, 5 nM Tb-GST-antibody, 5 nM Fluormone Pan- PPAR Green, and serial dilutions of the experimental compound, beginning at 10 ׬� downwards, was added to wells of black 384-well low- volume plates (Greiner) to a total volume of 18 xL. All dilutions were made in TR-FRET assay buffer C. DMSO at 2% final concentration was used as a no-ligand control. Experiment was performed in triplicate, and incubated for 2 hours in the dark prior to assay read in Perkin Elmer ViewLux ultra HTS microplate reader. FRET signal was measured by excitation at 340 nm and emission at 520 nm for fluorescein and 490 nm for terbium.

$$$$
CHEMBL3695790
Actelion Java MolfileCreator 2.0

  0  0  0  0  0  0              0 V3000
M  V30 BEGIN CTAB
M  V30 COUNTS 41 46 0 0 0
M  V30 BEGIN ATOM
M  V30 1 Br 6.0621 -1.9999 0.0 0
M  V30 2 C 5.1961 -1.4999 0.0 0
M  V30 3 C 5.1961 -0.5 0.0 0
M  V30 4 C 4.3301 -1.9999 0.0 0
M  V30 5 C 4.3301 0.0 0.0 0
M  V30 6 C 3.4641 -1.5 0.0 0
M  V30 7 C 3.4641 -0.5 0.0 0
M  V30 8 C 2.598 0.0 0.0 0 CFG=1
M  V30 9 N 1.732 -0.5 0.0 0
M  V30 10 C 2.598 1.0 0.0 0
M  V30 11 C 0.866 0.0 0.0 0
M  V30 12 O 0.866 1.0 0.0 0
M  V30 13 C 0.0 -0.5 0.0 0
M  V30 14 C 0.0 -1.4999 0.0 0
M  V30 15 C -0.866 0.0 0.0 0
M  V30 16 C -0.866 -1.9999 0.0 0
M  V30 17 C -1.732 -0.4999 0.0 0
M  V30 18 C -1.732 -1.4999 0.0 0
M  V30 19 C -1.0739 -2.9781 0.0 0
M  V30 20 N -2.4751 -2.1691 0.0 0
M  V30 21 C -2.0684 -3.0826 0.0 0
M  V30 22 C -0.4048 -3.7212 0.0 0
M  V30 23 C -3.4533 -1.9612 0.0 0
M  V30 24 C -2.5684 -3.9487 0.0 0
M  V30 25 C -4.1224 -2.7043 0.0 0
M  V30 26 C -5.1006 -2.4964 0.0 0
M  V30 27 C -3.8134 -3.6554 0.0 0
M  V30 28 C -5.7697 -3.2395 0.0 0
M  V30 29 C -4.4825 -4.3985 0.0 0
M  V30 30 C -5.4607 -4.1906 0.0 0
M  V30 31 C -6.1298 -4.9337 0.0 0
M  V30 32 C -7.108 -4.7258 0.0 0
M  V30 33 C -5.8208 -5.8848 0.0 0
M  V30 34 C -7.417 -3.7748 0.0 0
M  V30 35 C -7.7771 -5.469 0.0 0
M  V30 36 C -6.4899 -6.6279 0.0 0
M  V30 37 N -6.8292 -2.9658 0.0 0
M  V30 38 N -8.368 -3.4658 0.0 0
M  V30 39 C -7.4681 -6.42 0.0 0
M  V30 40 N -7.417 -2.1567 0.0 0
M  V30 41 N -8.368 -2.4658 0.0 0
M  V30 END ATOM
M  V30 BEGIN BOND
M  V30 1 1 1 2
M  V30 2 2 2 3
M  V30 3 1 2 4
M  V30 4 1 3 5
M  V30 5 2 4 6
M  V30 6 2 5 7
M  V30 7 1 7 8
M  V30 8 1 8 9
M  V30 9 1 8 10 CFG=1
M  V30 10 1 9 11
M  V30 11 2 11 12
M  V30 12 1 11 13
M  V30 13 2 13 14
M  V30 14 1 13 15
M  V30 15 1 14 16
M  V30 16 2 15 17
M  V30 17 2 16 18
M  V30 18 1 16 19
M  V30 19 1 18 20
M  V30 20 2 19 21
M  V30 21 1 19 22
M  V30 22 1 20 23
M  V30 23 1 21 24
M  V30 24 1 23 25
M  V30 25 2 25 26
M  V30 26 1 25 27
M  V30 27 1 26 28
M  V30 28 2 27 29
M  V30 29 2 28 30
M  V30 30 1 30 31
M  V30 31 2 31 32
M  V30 32 1 31 33
M  V30 33 1 32 34
M  V30 34 1 32 35
M  V30 35 2 33 36
M  V30 36 2 34 37
M  V30 37 1 34 38
M  V30 38 2 35 39
M  V30 39 1 37 40
M  V30 40 1 38 41
M  V30 41 1 6 7
M  V30 42 1 17 18
M  V30 43 1 20 21
M  V30 44 1 29 30
M  V30 45 1 36 39
M  V30 46 2 40 41
M  V30 END BOND
M  V30 BEGIN COLLECTION
M  V30 MDLV30/STEABS ATOMS=(1 8)
M  V30 END COLLECTION
M  V30 END CTAB
M  END
>  <Molecule ChEMBL ID>
CHEMBL3695790

>  <Smiles>
Cc1c(C)n(Cc2ccc(-c3ccccc3-c3nnn[nH]3)cc2)c2ccc(C(=O)N[C@@H](C)c3ccc(Br)cc3)cc12

>  <IC50_nM>
1000

>  <Assay Description>
Lanthascreen Competitive Binding Assay: The assay was performed according to manufacturer protocol. A mixture of nM GST-PPARG-LBD, 5 nM Tb-GST-antibody, 5 nM Fluormone Pan-PPAR Green, and serial dilutions of the experimental compound, beginning at 10 ׬M downwards, was added to wells of black 384-well low-volume plates (Greiner) to a total volume of 18 ׬L. All dilutions were made in TR-FRET assay buffer C. DMSO at 2% final concentration was used as a no-ligand control. Experiment was performed in triplicate, and incubated for 2 hours in the dark prior to assay read in Perkin Elmer ViewLux ultra HTS microplate reader. FRET signal was measured by excitation at 340 nm and emission at 520 nm for fluorescein and 490 nm for terbium. Fold change over DMSO was calculated using GraphPad Prism Software (La Jolla, Calif.) by calculating 520 nm/490 nm ratio. Graphs were plotted as fold change of FRET signal for compound treatment over DMSO-only control.

$$$$
CHEMBL3695808
Actelion Java MolfileCreator 2.0

  0  0  0  0  0  0              0 V3000
M  V30 BEGIN CTAB
M  V30 COUNTS 37 41 0 0 0
M  V30 BEGIN ATOM
M  V30 1 O 14.3047 9.4083 0.0 0
M  V30 2 C 13.8411 7.9817 0.0 0
M  V30 3 O 14.8448 6.867 0.0 0
M  V30 4 C 12.3739 7.6698 0.0 0
M  V30 5 C 11.9104 6.2432 0.0 0
M  V30 6 C 11.3702 8.7845 0.0 0
M  V30 7 C 12.9141 5.1285 0.0 0
M  V30 8 C 10.4432 5.9314 0.0 0
M  V30 9 C 9.903 8.4727 0.0 0
M  V30 10 C 12.4505 3.7019 0.0 0
M  V30 11 C 14.3813 5.4404 0.0 0
M  V30 12 C 9.4395 7.0461 0.0 0
M  V30 13 C 13.4542 2.5872 0.0 0
M  V30 14 C 10.9833 3.3901 0.0 0
M  V30 15 C 15.385 4.3257 0.0 0
M  V30 16 C 14.9215 2.8991 0.0 0
M  V30 17 N 10.5198 1.9635 0.0 0
M  V30 18 C 9.0932 1.4999 0.0 0
M  V30 19 C 11.4015 0.75 0.0 0
M  V30 20 C 9.0932 0.0 0.0 0
M  V30 21 C 7.7942 2.2499 0.0 0
M  V30 22 C 10.5198 -0.4635 0.0 0
M  V30 23 C 7.7942 -0.75 0.0 0
M  V30 24 C 6.4951 1.4999 0.0 0
M  V30 25 C 6.4951 0.0 0.0 0
M  V30 26 C 5.1961 -0.75 0.0 0
M  V30 27 O 5.1961 -2.25 0.0 0
M  V30 28 N 3.8971 0.0 0.0 0
M  V30 29 C 2.598 -0.75 0.0 0 CFG=2
M  V30 30 C 2.598 -2.25 0.0 0
M  V30 31 C 1.299 0.0 0.0 0
M  V30 32 C 1.299 -3.0 0.0 0
M  V30 33 C 3.8971 -3.0 0.0 0
M  V30 34 C 0.0 -0.75 0.0 0
M  V30 35 C 1.299 -4.5 0.0 0
M  V30 36 C 3.8971 -4.5 0.0 0
M  V30 37 C 2.598 -5.25 0.0 0
M  V30 END ATOM
M  V30 BEGIN BOND
M  V30 1 2 1 2
M  V30 2 1 2 3
M  V30 3 1 2 4
M  V30 4 2 4 5
M  V30 5 1 4 6
M  V30 6 1 5 7
M  V30 7 1 5 8
M  V30 8 2 6 9
M  V30 9 2 7 10
M  V30 10 1 7 11
M  V30 11 2 8 12
M  V30 12 1 10 13
M  V30 13 1 10 14
M  V30 14 2 11 15
M  V30 15 2 13 16
M  V30 16 1 14 17
M  V30 17 1 17 18
M  V30 18 1 17 19
M  V30 19 2 18 20
M  V30 20 1 18 21
M  V30 21 2 19 22
M  V30 22 1 20 23
M  V30 23 2 21 24
M  V30 24 2 23 25
M  V30 25 1 25 26
M  V30 26 2 26 27
M  V30 27 1 26 28
M  V30 28 1 29 28 CFG=3
M  V30 29 1 29 30
M  V30 30 1 29 31
M  V30 31 2 30 32
M  V30 32 1 30 33
M  V30 33 1 31 34
M  V30 34 1 32 35
M  V30 35 2 33 36
M  V30 36 2 35 37
M  V30 37 1 9 12
M  V30 38 1 15 16
M  V30 39 1 20 22
M  V30 40 1 24 25
M  V30 41 1 36 37
M  V30 END BOND
M  V30 BEGIN COLLECTION
M  V30 MDLV30/STERAC1 ATOMS=(1 29)
M  V30 END COLLECTION
M  V30 END CTAB
M  END
>  <Molecule ChEMBL ID>
CHEMBL3695808

>  <Smiles>
CCC(NC(=O)c1ccc2c(ccn2Cc2ccccc2-c2ccccc2C(=O)O)c1)c1ccccc1

>  <IC50_nM>
1000

>  <Assay Description>
Lanthascreen Competitive Binding Assay: The assay was performed according to manufacturer protocol. A mixture of nM GST-PPARG-LBD, 5 nM Tb-GST-antibody, 5 nM Fluormone Pan-PPAR Green, and serial dilutions of the experimental compound, beginning at 10 ׬M downwards, was added to wells of black 384-well low-volume plates (Greiner) to a total volume of 18 ׬L. All dilutions were made in TR-FRET assay buffer C. DMSO at 2% final concentration was used as a no-ligand control. Experiment was performed in triplicate, and incubated for 2 hours in the dark prior to assay read in Perkin Elmer ViewLux ultra HTS microplate reader. FRET signal was measured by excitation at 340 nm and emission at 520 nm for fluorescein and 490 nm for terbium. Fold change over DMSO was calculated using GraphPad Prism Software (La Jolla, Calif.) by calculating 520 nm/490 nm ratio. Graphs were plotted as fold change of FRET signal for compound treatment over DMSO-only control.

$$$$
CHEMBL3695820
Actelion Java MolfileCreator 2.0

  0  0  0  0  0  0              0 V3000
M  V30 BEGIN CTAB
M  V30 COUNTS 39 43 0 0 0
M  V30 BEGIN ATOM
M  V30 1 O 11.8592 -3.5669 0.0 0
M  V30 2 C 10.8811 -3.7748 0.0 0
M  V30 3 O 10.212 -3.0316 0.0 0
M  V30 4 C 10.5721 -4.7258 0.0 0
M  V30 5 C 9.5939 -4.9337 0.0 0
M  V30 6 C 11.2412 -5.469 0.0 0
M  V30 7 C 8.9248 -4.1906 0.0 0
M  V30 8 C 9.2849 -5.8848 0.0 0
M  V30 9 C 10.9322 -6.42 0.0 0
M  V30 10 C 9.2338 -3.2395 0.0 0
M  V30 11 C 7.9466 -4.3985 0.0 0
M  V30 12 C 9.954 -6.6279 0.0 0
M  V30 13 C 8.5647 -2.4964 0.0 0
M  V30 14 C 7.2775 -3.6554 0.0 0
M  V30 15 C 7.5865 -2.7043 0.0 0
M  V30 16 C 6.9174 -1.9612 0.0 0
M  V30 17 N 5.9392 -2.1691 0.0 0
M  V30 18 C 5.1961 -1.4999 0.0 0
M  V30 19 C 5.5325 -3.0826 0.0 0
M  V30 20 C 4.3301 -1.9999 0.0 0
M  V30 21 C 5.1961 -0.4999 0.0 0
M  V30 22 C 4.538 -2.9781 0.0 0
M  V30 23 C 6.0325 -3.9487 0.0 0
M  V30 24 C 3.4641 -1.5 0.0 0
M  V30 25 C 4.3301 0.0 0.0 0
M  V30 26 C 3.8689 -3.7212 0.0 0
M  V30 27 C 3.4641 -0.5 0.0 0
M  V30 28 C 2.598 0.0 0.0 0
M  V30 29 O 2.598 1.0 0.0 0
M  V30 30 N 1.732 -0.5 0.0 0
M  V30 31 C 0.866 0.0 0.0 0
M  V30 32 C 0.0 -0.5 0.0 0
M  V30 33 C -0.866 0.0 0.0 0
M  V30 34 C 0.0 -1.4999 0.0 0
M  V30 35 C -1.732 -0.4999 0.0 0
M  V30 36 C -0.866 -1.9999 0.0 0
M  V30 37 C -1.732 -1.4999 0.0 0
M  V30 38 C -2.598 0.0 0.0 0
M  V30 39 N -3.4641 -0.4999 0.0 0
M  V30 END ATOM
M  V30 BEGIN BOND
M  V30 1 2 1 2
M  V30 2 1 2 3
M  V30 3 1 2 4
M  V30 4 2 4 5
M  V30 5 1 4 6
M  V30 6 1 5 7
M  V30 7 1 5 8
M  V30 8 2 6 9
M  V30 9 2 7 10
M  V30 10 1 7 11
M  V30 11 2 8 12
M  V30 12 1 10 13
M  V30 13 2 11 14
M  V30 14 2 13 15
M  V30 15 1 15 16
M  V30 16 1 16 17
M  V30 17 1 17 18
M  V30 18 1 17 19
M  V30 19 2 18 20
M  V30 20 1 18 21
M  V30 21 2 19 22
M  V30 22 1 19 23
M  V30 23 1 20 24
M  V30 24 2 21 25
M  V30 25 1 22 26
M  V30 26 2 24 27
M  V30 27 1 27 28
M  V30 28 2 28 29
M  V30 29 1 28 30
M  V30 30 1 30 31
M  V30 31 1 31 32
M  V30 32 2 32 33
M  V30 33 1 32 34
M  V30 34 1 33 35
M  V30 35 2 34 36
M  V30 36 2 35 37
M  V30 37 1 35 38
M  V30 38 1 38 39
M  V30 39 1 9 12
M  V30 40 1 14 15
M  V30 41 1 20 22
M  V30 42 1 25 27
M  V30 43 1 36 37
M  V30 END BOND
M  V30 END CTAB
M  END
>  <Molecule ChEMBL ID>
CHEMBL3695820

>  <Smiles>
Cc1c(C)n(Cc2ccc(-c3ccccc3C(=O)O)cc2)c2ccc(C(=O)NCc3cccc(CN)c3)cc12

>  <IC50_nM>
1000

>  <Assay Description>
Lanthascreen Competitive Binding Assay: The assay was performed according to manufacturer protocol. A mixture of nM GST-PPARG-LBD, 5 nM Tb-GST-antibody, 5 nM Fluormone Pan-PPAR Green, and serial dilutions of the experimental compound, beginning at 10 ׬M downwards, was added to wells of black 384-well low-volume plates (Greiner) to a total volume of 18 ׬L. All dilutions were made in TR-FRET assay buffer C. DMSO at 2% final concentration was used as a no-ligand control. Experiment was performed in triplicate, and incubated for 2 hours in the dark prior to assay read in Perkin Elmer ViewLux ultra HTS microplate reader. FRET signal was measured by excitation at 340 nm and emission at 520 nm for fluorescein and 490 nm for terbium. Fold change over DMSO was calculated using GraphPad Prism Software (La Jolla, Calif.) by calculating 520 nm/490 nm ratio. Graphs were plotted as fold change of FRET signal for compound treatment over DMSO-only control.

$$$$
CHEMBL3678095
Actelion Java MolfileCreator 2.0

  0  0  0  0  0  0              0 V3000
M  V30 BEGIN CTAB
M  V30 COUNTS 26 29 0 0 0
M  V30 BEGIN ATOM
M  V30 1 F 6.2082 4.1621 0.0 0
M  V30 2 C 6.8773 3.419 0.0 0
M  V30 3 C 6.5683 2.4679 0.0 0
M  V30 4 C 7.8555 3.6269 0.0 0
M  V30 5 C 7.2374 1.7248 0.0 0
M  V30 6 C 5.5902 2.26 0.0 0
M  V30 7 C 8.5246 2.8838 0.0 0
M  V30 8 C 8.2156 1.9327 0.0 0
M  V30 9 N 5.2811 1.309 0.0 0
M  V30 10 F 9.5027 3.0917 0.0 0
M  V30 11 C 4.3301 1.0 0.0 0
M  V30 12 C 5.8689 0.5 0.0 0
M  V30 13 C 4.3301 0.0 0.0 0
M  V30 14 C 3.4641 1.5 0.0 0
M  V30 15 C 5.2811 -0.309 0.0 0
M  V30 16 C 3.4641 -0.4999 0.0 0
M  V30 17 C 2.598 0.9999 0.0 0
M  V30 18 C 2.598 0.0 0.0 0
M  V30 19 C 1.732 -0.5 0.0 0
M  V30 20 O 1.732 -1.5 0.0 0
M  V30 21 N 0.866 0.0 0.0 0
M  V30 22 C 0.0 -0.5 0.0 0
M  V30 23 C -0.9135 -0.0932 0.0 0
M  V30 24 C -0.1045 -1.4945 0.0 0
M  V30 25 C -1.5826 -0.8364 0.0 0
M  V30 26 C -1.0826 -1.7024 0.0 0
M  V30 END ATOM
M  V30 BEGIN BOND
M  V30 1 1 1 2
M  V30 2 2 2 3
M  V30 3 1 2 4
M  V30 4 1 3 5
M  V30 5 1 3 6
M  V30 6 2 4 7
M  V30 7 2 5 8
M  V30 8 1 6 9
M  V30 9 1 7 10
M  V30 10 1 9 11
M  V30 11 1 9 12
M  V30 12 2 11 13
M  V30 13 1 11 14
M  V30 14 2 12 15
M  V30 15 1 13 16
M  V30 16 2 14 17
M  V30 17 2 16 18
M  V30 18 1 18 19
M  V30 19 2 19 20
M  V30 20 1 19 21
M  V30 21 1 21 22
M  V30 22 1 22 23
M  V30 23 1 22 24
M  V30 24 1 23 25
M  V30 25 1 24 26
M  V30 26 1 7 8
M  V30 27 1 13 15
M  V30 28 1 17 18
M  V30 29 1 25 26
M  V30 END BOND
M  V30 END CTAB
M  END
>  <Molecule ChEMBL ID>
CHEMBL3678095

>  <Smiles>
O=C(NC1CCCC1)c1ccc2c(ccn2Cc2ccc(F)cc2F)c1

>  <IC50_nM>
1000

>  <Assay Description>
Lanthascreen Competitive Binding Assay: The assay was performed according to manufacturer protocol. A mixture of 5 nM GST-PPARG-LBD, 5 nM Tb-GST-antibody, 5 nM Fluormone Pan- PPAR Green, and serial dilutions of the experimental compound, beginning at 10 ׬� downwards, was added to wells of black 384-well low- volume plates (Greiner) to a total volume of 18 xL. All dilutions were made in TR-FRET assay buffer C. DMSO at 2% final concentration was used as a no-ligand control. Experiment was performed in triplicate, and incubated for 2 hours in the dark prior to assay read in Perkin Elmer ViewLux ultra HTS microplate reader. FRET signal was measured by excitation at 340 nm and emission at 520 nm for fluorescein and 490 nm for terbium.

$$$$
CHEMBL3678101
Actelion Java MolfileCreator 2.0

  0  0  0  0  0  0              0 V3000
M  V30 BEGIN CTAB
M  V30 COUNTS 29 32 0 0 0
M  V30 BEGIN ATOM
M  V30 1 O 6.6531 3.0032 0.0 0
M  V30 2 C 7.3222 2.26 0.0 0
M  V30 3 N 7.0132 1.309 0.0 0
M  V30 4 C 8.3003 2.4679 0.0 0
M  V30 5 C 6.0621 0.9999 0.0 0
M  V30 6 C 7.601 0.5 0.0 0
M  V30 7 C 8.9695 1.7248 0.0 0
M  V30 8 C 8.6094 3.419 0.0 0
M  V30 9 C 6.0621 0.0 0.0 0
M  V30 10 C 5.1961 1.4999 0.0 0
M  V30 11 C 7.0132 -0.309 0.0 0
M  V30 12 C 9.9476 1.9327 0.0 0
M  V30 13 C 9.5875 3.6269 0.0 0
M  V30 14 C 5.1961 -0.5 0.0 0
M  V30 15 C 4.3301 0.9999 0.0 0
M  V30 16 C 10.2566 2.8838 0.0 0
M  V30 17 C 4.3301 0.0 0.0 0
M  V30 18 C 3.4641 -0.5 0.0 0
M  V30 19 O 3.4641 -1.5 0.0 0
M  V30 20 N 2.598 0.0 0.0 0
M  V30 21 C 1.732 -0.5 0.0 0 CFG=2
M  V30 22 C 1.732 -1.5 0.0 0
M  V30 23 C 0.866 0.0 0.0 0
M  V30 24 C 0.866 -1.9999 0.0 0
M  V30 25 C 2.598 -2.0 0.0 0
M  V30 26 C 0.0 -0.5 0.0 0
M  V30 27 C 0.866 -2.9999 0.0 0
M  V30 28 C 2.598 -3.0 0.0 0
M  V30 29 C 1.732 -3.5 0.0 0
M  V30 END ATOM
M  V30 BEGIN BOND
M  V30 1 2 1 2
M  V30 2 1 2 3
M  V30 3 1 2 4
M  V30 4 1 3 5
M  V30 5 1 3 6
M  V30 6 2 4 7
M  V30 7 1 4 8
M  V30 8 2 5 9
M  V30 9 1 5 10
M  V30 10 2 6 11
M  V30 11 1 7 12
M  V30 12 2 8 13
M  V30 13 1 9 14
M  V30 14 2 10 15
M  V30 15 2 12 16
M  V30 16 2 14 17
M  V30 17 1 17 18
M  V30 18 2 18 19
M  V30 19 1 18 20
M  V30 20 1 21 20 CFG=3
M  V30 21 1 21 22
M  V30 22 1 21 23
M  V30 23 2 22 24
M  V30 24 1 22 25
M  V30 25 1 23 26
M  V30 26 1 24 27
M  V30 27 2 25 28
M  V30 28 2 27 29
M  V30 29 1 9 11
M  V30 30 1 13 16
M  V30 31 1 15 17
M  V30 32 1 28 29
M  V30 END BOND
M  V30 BEGIN COLLECTION
M  V30 MDLV30/STERAC1 ATOMS=(1 21)
M  V30 END COLLECTION
M  V30 END CTAB
M  END
>  <Molecule ChEMBL ID>
CHEMBL3678101

>  <Smiles>
CCC(NC(=O)c1ccc2c(ccn2C(=O)c2ccccc2)c1)c1ccccc1

>  <IC50_nM>
1000

>  <Assay Description>
Lanthascreen Competitive Binding Assay: The assay was performed according to manufacturer protocol. A mixture of 5 nM GST-PPARG-LBD, 5 nM Tb-GST-antibody, 5 nM Fluormone Pan- PPAR Green, and serial dilutions of the experimental compound, beginning at 10 ׬� downwards, was added to wells of black 384-well low- volume plates (Greiner) to a total volume of 18 xL. All dilutions were made in TR-FRET assay buffer C. DMSO at 2% final concentration was used as a no-ligand control. Experiment was performed in triplicate, and incubated for 2 hours in the dark prior to assay read in Perkin Elmer ViewLux ultra HTS microplate reader. FRET signal was measured by excitation at 340 nm and emission at 520 nm for fluorescein and 490 nm for terbium.

$$$$
CHEMBL2031957
Actelion Java MolfileCreator 2.0

  0  0  0  0  0  0              0 V3000
M  V30 BEGIN CTAB
M  V30 COUNTS 25 26 0 0 0
M  V30 BEGIN ATOM
M  V30 1 S 17.9624 -5.7546 0.0 0
M  V30 2 C 16.9587 -4.6398 0.0 0
M  V30 3 C 17.2124 -7.0536 0.0 0
M  V30 4 C 15.5884 -5.25 0.0 0
M  V30 5 C 15.7452 -6.7417 0.0 0
M  V30 6 C 14.2894 -4.5 0.0 0
M  V30 7 C 14.2894 -3.0 0.0 0
M  V30 8 C 12.9903 -2.25 0.0 0
M  V30 9 C 12.9903 -0.75 0.0 0
M  V30 10 C 11.6913 -3.0 0.0 0
M  V30 11 C 11.6913 0.0 0.0 0
M  V30 12 C 10.3923 -2.25 0.0 0
M  V30 13 O 11.6913 1.4999 0.0 0
M  V30 14 C 10.3923 -0.75 0.0 0
M  V30 15 O 9.0932 -2.9999 0.0 0
M  V30 16 C 9.0932 0.0 0.0 0
M  V30 17 C 7.7942 -0.75 0.0 0
M  V30 18 C 6.4951 0.0 0.0 0
M  V30 19 C 5.1961 -0.75 0.0 0
M  V30 20 C 6.4951 1.5 0.0 0
M  V30 21 C 3.8971 0.0 0.0 0
M  V30 22 C 2.598 -0.75 0.0 0
M  V30 23 C 1.299 0.0 0.0 0
M  V30 24 C 1.299 1.5 0.0 0
M  V30 25 C 0.0 -0.75 0.0 0
M  V30 END ATOM
M  V30 BEGIN BOND
M  V30 1 1 1 2
M  V30 2 1 1 3
M  V30 3 2 2 4
M  V30 4 2 3 5
M  V30 5 1 4 6
M  V30 6 2 6 7
M  V30 7 1 7 8
M  V30 8 2 8 9
M  V30 9 1 8 10
M  V30 10 1 9 11
M  V30 11 2 10 12
M  V30 12 1 11 13
M  V30 13 2 11 14
M  V30 14 1 12 15
M  V30 15 1 14 16
M  V30 16 1 16 17
M  V30 17 2 17 18
M  V30 18 1 18 19
M  V30 19 1 18 20
M  V30 20 1 19 21
M  V30 21 1 21 22
M  V30 22 2 22 23
M  V30 23 1 23 24
M  V30 24 1 23 25
M  V30 25 1 4 5
M  V30 26 1 12 14
M  V30 END BOND
M  V30 END CTAB
M  END
>  <Molecule ChEMBL ID>
CHEMBL2031957

>  <Smiles>
CC(C)=CCC/C(C)=C/Cc1c(O)cc(/C=C/c2ccsc2)cc1O

>  <IC50_nM>
1010

>  <Assay Description>
Binding affinity to GST-tagged human PPARgamma by TR-FRET analysis

$$$$
CHEMBL1091980
Actelion Java MolfileCreator 2.0

  0  0  0  0  0  0              0 V3000
M  V30 BEGIN CTAB
M  V30 COUNTS 37 40 0 0 0
M  V30 BEGIN ATOM
M  V30 1 Cl 4.8826 8.8659 0.0 0
M  V30 2 C 5.8772 8.7614 0.0 0
M  V30 3 C 6.2839 7.8478 0.0 0
M  V30 4 C 6.4649 9.5704 0.0 0
M  V30 5 C 5.6961 7.0388 0.0 0
M  V30 6 C 7.2784 7.7433 0.0 0
M  V30 7 C 7.4595 9.4658 0.0 0
M  V30 8 O 4.6961 7.0388 0.0 0
M  V30 9 N 6.0051 6.0877 0.0 0
M  V30 10 C 7.8662 8.5523 0.0 0
M  V30 11 C 4.3871 6.0877 0.0 0
M  V30 12 C 5.1961 5.5 0.0 0
M  V30 13 C 3.436 5.7787 0.0 0
M  V30 14 C 5.1961 4.5 0.0 0
M  V30 15 O 4.3301 4.0 0.0 0
M  V30 16 C 4.3301 3.0 0.0 0
M  V30 17 C 3.4641 2.5 0.0 0
M  V30 18 C 5.1961 2.5 0.0 0
M  V30 19 C 3.4641 1.5 0.0 0
M  V30 20 C 5.1961 1.5 0.0 0
M  V30 21 C 4.3301 1.0 0.0 0
M  V30 22 C 2.598 1.0 0.0 0
M  V30 23 N 2.598 0.0 0.0 0
M  V30 24 C 3.4641 -0.5 0.0 0
M  V30 25 C 1.732 -0.5 0.0 0
M  V30 26 O 3.4641 -1.5 0.0 0
M  V30 27 O 4.3301 0.0 0.0 0
M  V30 28 C 0.866 0.0 0.0 0
M  V30 29 C 5.1961 -0.5 0.0 0
M  V30 30 O 0.866 1.0 0.0 0
M  V30 31 O 0.0 -0.5 0.0 0
M  V30 32 C 5.1961 -1.5 0.0 0
M  V30 33 C 6.0621 0.0 0.0 0
M  V30 34 C 6.0621 -2.0 0.0 0
M  V30 35 C 6.9282 -0.5 0.0 0
M  V30 36 C 6.9282 -1.5 0.0 0
M  V30 37 C 7.7942 -2.0 0.0 0
M  V30 END ATOM
M  V30 BEGIN BOND
M  V30 1 1 1 2
M  V30 2 2 2 3
M  V30 3 1 2 4
M  V30 4 1 3 5
M  V30 5 1 3 6
M  V30 6 2 4 7
M  V30 7 1 5 8
M  V30 8 2 5 9
M  V30 9 2 6 10
M  V30 10 1 8 11
M  V30 11 1 9 12
M  V30 12 1 11 13
M  V30 13 1 12 14
M  V30 14 1 14 15
M  V30 15 1 15 16
M  V30 16 2 16 17
M  V30 17 1 16 18
M  V30 18 1 17 19
M  V30 19 2 18 20
M  V30 20 2 19 21
M  V30 21 1 19 22
M  V30 22 1 22 23
M  V30 23 1 23 24
M  V30 24 1 23 25
M  V30 25 2 24 26
M  V30 26 1 24 27
M  V30 27 1 25 28
M  V30 28 1 27 29
M  V30 29 2 28 30
M  V30 30 1 28 31
M  V30 31 2 29 32
M  V30 32 1 29 33
M  V30 33 1 32 34
M  V30 34 2 33 35
M  V30 35 2 34 36
M  V30 36 1 36 37
M  V30 37 1 7 10
M  V30 38 2 11 12
M  V30 39 1 20 21
M  V30 40 1 35 36
M  V30 END BOND
M  V30 END CTAB
M  END
>  <Molecule ChEMBL ID>
CHEMBL1091980

>  <Smiles>
Cc1ccc(OC(=O)N(CC(=O)O)Cc2cccc(OCc3nc(-c4ccccc4Cl)oc3C)c2)cc1

>  <IC50_nM>
1039

>  <Assay Description>
Binding affinity to human His-tagged PPARgamma LBD (Q203-Y477) expressed in Escherichia coli BL21 (DE3) by fluorescence polarization assay

$$$$
CHEMBL5288593
Actelion Java MolfileCreator 2.0

  0  0  0  0  0  0              0 V3000
M  V30 BEGIN CTAB
M  V30 COUNTS 27 29 0 0 0
M  V30 BEGIN ATOM
M  V30 1 Cl 6.0621 -1.9999 0.0 0
M  V30 2 C 5.1961 -1.4999 0.0 0
M  V30 3 C 5.1961 -0.5 0.0 0
M  V30 4 C 4.3301 -1.9999 0.0 0
M  V30 5 C 6.0621 0.0 0.0 0
M  V30 6 C 4.3301 0.0 0.0 0
M  V30 7 C 3.4641 -1.5 0.0 0
M  V30 8 O 6.0621 0.9999 0.0 0
M  V30 9 N 6.9282 -0.5 0.0 0
M  V30 10 C 3.4641 -0.5 0.0 0
M  V30 11 C 7.7942 0.0 0.0 0
M  V30 12 C 2.598 0.0 0.0 0
M  V30 13 C 8.6602 -0.5 0.0 0
M  V30 14 C 7.7942 0.9999 0.0 0
M  V30 15 O 2.598 1.0 0.0 0
M  V30 16 N 1.732 -0.5 0.0 0
M  V30 17 C 9.5262 0.0 0.0 0
M  V30 18 C 8.6602 1.4999 0.0 0
M  V30 19 C 0.866 0.0 0.0 0
M  V30 20 C 9.5262 0.9999 0.0 0
M  V30 21 C 0.0 -0.5 0.0 0
M  V30 22 C -0.866 0.0 0.0 0
M  V30 23 C 0.0 -1.4999 0.0 0
M  V30 24 C -1.732 -0.4999 0.0 0
M  V30 25 C -0.866 1.0 0.0 0
M  V30 26 C -0.866 -1.9999 0.0 0
M  V30 27 C -1.732 -1.4999 0.0 0
M  V30 END ATOM
M  V30 BEGIN BOND
M  V30 1 1 1 2
M  V30 2 2 2 3
M  V30 3 1 2 4
M  V30 4 1 3 5
M  V30 5 1 3 6
M  V30 6 2 4 7
M  V30 7 2 5 8
M  V30 8 1 5 9
M  V30 9 2 6 10
M  V30 10 1 9 11
M  V30 11 1 10 12
M  V30 12 2 11 13
M  V30 13 1 11 14
M  V30 14 2 12 15
M  V30 15 1 12 16
M  V30 16 1 13 17
M  V30 17 2 14 18
M  V30 18 1 16 19
M  V30 19 2 17 20
M  V30 20 1 19 21
M  V30 21 2 21 22
M  V30 22 1 21 23
M  V30 23 1 22 24
M  V30 24 1 22 25
M  V30 25 2 23 26
M  V30 26 2 24 27
M  V30 27 1 7 10
M  V30 28 1 18 20
M  V30 29 1 26 27
M  V30 END BOND
M  V30 END CTAB
M  END
>  <Molecule ChEMBL ID>
CHEMBL5288593

>  <Smiles>
Cc1ccccc1CNC(=O)c1ccc(Cl)c(C(=O)Nc2ccccc2)c1

>  <IC50_nM>
1040

>  <Assay Description>
Inverse agonist activity at human PPARgamma in human RT112/84 transfected with NLuc-fused FABP4 assessed as reduction in PPARgamma transactivation incubated for 6 to 18 hrs by Nano-Glo luciferase assay

$$$$
CHEMBL3699401
Actelion Java MolfileCreator 2.0

  0  0  0  0  0  0              0 V3000
M  V30 BEGIN CTAB
M  V30 COUNTS 42 46 0 0 0
M  V30 BEGIN ATOM
M  V30 1 O 11.8592 -3.5669 0.0 0
M  V30 2 C 10.8811 -3.7748 0.0 0
M  V30 3 O 10.212 -3.0316 0.0 0
M  V30 4 C 10.5721 -4.7258 0.0 0
M  V30 5 C 9.5939 -4.9337 0.0 0
M  V30 6 C 11.2412 -5.469 0.0 0
M  V30 7 C 8.9248 -4.1906 0.0 0
M  V30 8 C 9.2849 -5.8848 0.0 0
M  V30 9 C 10.9322 -6.42 0.0 0
M  V30 10 C 9.2338 -3.2395 0.0 0
M  V30 11 C 7.9466 -4.3985 0.0 0
M  V30 12 C 9.954 -6.6279 0.0 0
M  V30 13 C 8.5647 -2.4964 0.0 0
M  V30 14 C 7.2775 -3.6554 0.0 0
M  V30 15 C 7.5865 -2.7043 0.0 0
M  V30 16 C 6.9174 -1.9612 0.0 0
M  V30 17 N 5.9392 -2.1691 0.0 0
M  V30 18 C 5.1961 -1.4999 0.0 0
M  V30 19 C 5.5325 -3.0826 0.0 0
M  V30 20 C 4.3301 -1.9999 0.0 0
M  V30 21 C 5.1961 -0.4999 0.0 0
M  V30 22 C 4.538 -2.9781 0.0 0
M  V30 23 C 6.0325 -3.9487 0.0 0
M  V30 24 C 3.4641 -1.5 0.0 0
M  V30 25 C 4.3301 0.0 0.0 0
M  V30 26 C 3.8689 -3.7212 0.0 0
M  V30 27 C 3.4641 -0.5 0.0 0
M  V30 28 C 2.598 0.0 0.0 0
M  V30 29 O 2.598 1.0 0.0 0
M  V30 30 N 1.732 -0.5 0.0 0
M  V30 31 C 0.866 0.0 0.0 0 CFG=2
M  V30 32 C 0.866 1.0 0.0 0
M  V30 33 C 0.0 -0.5 0.0 0
M  V30 34 C 0.0 1.5 0.0 0
M  V30 35 C 1.732 1.5 0.0 0
M  V30 36 O -0.866 0.9999 0.0 0
M  V30 37 C 0.0 2.5 0.0 0
M  V30 38 C 1.732 2.5 0.0 0
M  V30 39 C -1.732 1.4999 0.0 0
M  V30 40 C 0.866 2.9999 0.0 0
M  V30 41 C -1.732 2.4999 0.0 0
M  V30 42 C -2.598 0.9999 0.0 0
M  V30 END ATOM
M  V30 BEGIN BOND
M  V30 1 2 1 2
M  V30 2 1 2 3
M  V30 3 1 2 4
M  V30 4 2 4 5
M  V30 5 1 4 6
M  V30 6 1 5 7
M  V30 7 1 5 8
M  V30 8 2 6 9
M  V30 9 2 7 10
M  V30 10 1 7 11
M  V30 11 2 8 12
M  V30 12 1 10 13
M  V30 13 2 11 14
M  V30 14 2 13 15
M  V30 15 1 15 16
M  V30 16 1 16 17
M  V30 17 1 17 18
M  V30 18 1 17 19
M  V30 19 2 18 20
M  V30 20 1 18 21
M  V30 21 2 19 22
M  V30 22 1 19 23
M  V30 23 1 20 24
M  V30 24 2 21 25
M  V30 25 1 22 26
M  V30 26 2 24 27
M  V30 27 1 27 28
M  V30 28 2 28 29
M  V30 29 1 28 30
M  V30 30 1 30 31
M  V30 31 1 31 32
M  V30 32 1 31 33 CFG=1
M  V30 33 2 32 34
M  V30 34 1 32 35
M  V30 35 1 34 36
M  V30 36 1 34 37
M  V30 37 2 35 38
M  V30 38 1 36 39
M  V30 39 2 37 40
M  V30 40 1 39 41
M  V30 41 1 39 42
M  V30 42 1 9 12
M  V30 43 1 14 15
M  V30 44 1 20 22
M  V30 45 1 25 27
M  V30 46 1 38 40
M  V30 END BOND
M  V30 BEGIN COLLECTION
M  V30 MDLV30/STEABS ATOMS=(1 31)
M  V30 END COLLECTION
M  V30 END CTAB
M  END
>  <Molecule ChEMBL ID>
CHEMBL3699401

>  <Smiles>
Cc1c(C)n(Cc2ccc(-c3ccccc3C(=O)O)cc2)c2ccc(C(=O)N[C@@H](C)c3ccccc3OC(C)C)cc12

>  <IC50_nM>
1046

>  <Assay Description>
Lanthascreen Competitive Binding Assay: The assay was performed according to manufacturer protocol. A mixture of nM GST-PPARG-LBD, 5 nM Tb-GST-antibody, 5 nM Fluormone Pan-PPAR Green, and serial dilutions of the experimental compound, beginning at 10 ׬M downwards, was added to wells of black 384-well low-volume plates (Greiner) to a total volume of 18 ׬L. All dilutions were made in TR-FRET assay buffer C. DMSO at 2% final concentration was used as a no-ligand control. Experiment was performed in triplicate, and incubated for 2 hours in the dark prior to assay read in Perkin Elmer ViewLux ultra HTS microplate reader. FRET signal was measured by excitation at 340 nm and emission at 520 nm for fluorescein and 490 nm for terbium. Fold change over DMSO was calculated using GraphPad Prism Software (La Jolla, Calif.) by calculating 520 nm/490 nm ratio. Graphs were plotted as fold change of FRET signal for compound treatment over DMSO-only control.

$$$$
CHEMBL3699401
Actelion Java MolfileCreator 2.0

  0  0  0  0  0  0              0 V3000
M  V30 BEGIN CTAB
M  V30 COUNTS 42 46 0 0 0
M  V30 BEGIN ATOM
M  V30 1 O 11.8592 -3.5669 0.0 0
M  V30 2 C 10.8811 -3.7748 0.0 0
M  V30 3 O 10.212 -3.0316 0.0 0
M  V30 4 C 10.5721 -4.7258 0.0 0
M  V30 5 C 9.5939 -4.9337 0.0 0
M  V30 6 C 11.2412 -5.469 0.0 0
M  V30 7 C 8.9248 -4.1906 0.0 0
M  V30 8 C 9.2849 -5.8848 0.0 0
M  V30 9 C 10.9322 -6.42 0.0 0
M  V30 10 C 9.2338 -3.2395 0.0 0
M  V30 11 C 7.9466 -4.3985 0.0 0
M  V30 12 C 9.954 -6.6279 0.0 0
M  V30 13 C 8.5647 -2.4964 0.0 0
M  V30 14 C 7.2775 -3.6554 0.0 0
M  V30 15 C 7.5865 -2.7043 0.0 0
M  V30 16 C 6.9174 -1.9612 0.0 0
M  V30 17 N 5.9392 -2.1691 0.0 0
M  V30 18 C 5.1961 -1.4999 0.0 0
M  V30 19 C 5.5325 -3.0826 0.0 0
M  V30 20 C 4.3301 -1.9999 0.0 0
M  V30 21 C 5.1961 -0.4999 0.0 0
M  V30 22 C 4.538 -2.9781 0.0 0
M  V30 23 C 6.0325 -3.9487 0.0 0
M  V30 24 C 3.4641 -1.5 0.0 0
M  V30 25 C 4.3301 0.0 0.0 0
M  V30 26 C 3.8689 -3.7212 0.0 0
M  V30 27 C 3.4641 -0.5 0.0 0
M  V30 28 C 2.598 0.0 0.0 0
M  V30 29 O 2.598 1.0 0.0 0
M  V30 30 N 1.732 -0.5 0.0 0
M  V30 31 C 0.866 0.0 0.0 0 CFG=2
M  V30 32 C 0.866 1.0 0.0 0
M  V30 33 C 0.0 -0.5 0.0 0
M  V30 34 C 0.0 1.5 0.0 0
M  V30 35 C 1.732 1.5 0.0 0
M  V30 36 O -0.866 0.9999 0.0 0
M  V30 37 C 0.0 2.5 0.0 0
M  V30 38 C 1.732 2.5 0.0 0
M  V30 39 C -1.732 1.4999 0.0 0
M  V30 40 C 0.866 2.9999 0.0 0
M  V30 41 C -1.732 2.4999 0.0 0
M  V30 42 C -2.598 0.9999 0.0 0
M  V30 END ATOM
M  V30 BEGIN BOND
M  V30 1 2 1 2
M  V30 2 1 2 3
M  V30 3 1 2 4
M  V30 4 2 4 5
M  V30 5 1 4 6
M  V30 6 1 5 7
M  V30 7 1 5 8
M  V30 8 2 6 9
M  V30 9 2 7 10
M  V30 10 1 7 11
M  V30 11 2 8 12
M  V30 12 1 10 13
M  V30 13 2 11 14
M  V30 14 2 13 15
M  V30 15 1 15 16
M  V30 16 1 16 17
M  V30 17 1 17 18
M  V30 18 1 17 19
M  V30 19 2 18 20
M  V30 20 1 18 21
M  V30 21 2 19 22
M  V30 22 1 19 23
M  V30 23 1 20 24
M  V30 24 2 21 25
M  V30 25 1 22 26
M  V30 26 2 24 27
M  V30 27 1 27 28
M  V30 28 2 28 29
M  V30 29 1 28 30
M  V30 30 1 30 31
M  V30 31 1 31 32
M  V30 32 1 31 33 CFG=1
M  V30 33 2 32 34
M  V30 34 1 32 35
M  V30 35 1 34 36
M  V30 36 1 34 37
M  V30 37 2 35 38
M  V30 38 1 36 39
M  V30 39 2 37 40
M  V30 40 1 39 41
M  V30 41 1 39 42
M  V30 42 1 9 12
M  V30 43 1 14 15
M  V30 44 1 20 22
M  V30 45 1 25 27
M  V30 46 1 38 40
M  V30 END BOND
M  V30 BEGIN COLLECTION
M  V30 MDLV30/STEABS ATOMS=(1 31)
M  V30 END COLLECTION
M  V30 END CTAB
M  END
>  <Molecule ChEMBL ID>
CHEMBL3699401

>  <Smiles>
Cc1c(C)n(Cc2ccc(-c3ccccc3C(=O)O)cc2)c2ccc(C(=O)N[C@@H](C)c3ccccc3OC(C)C)cc12

>  <IC50_nM>
1046

>  <Assay Description>
Binding affinity to GST-tagged PPAR-gamma-LBD (unknown origin) after 2 hrs by Lantha screen assay using fluormone Pan-PPAR green probe

$$$$
CHEMBL175310
Actelion Java MolfileCreator 2.0

  0  0  0  0  0  0              0 V3000
M  V30 BEGIN CTAB
M  V30 COUNTS 34 37 0 0 0
M  V30 BEGIN ATOM
M  V30 1 F 9.1393 -2.451 0.0 0
M  V30 2 C 8.1882 -2.76 0.0 0
M  V30 3 F 8.4972 -3.7111 0.0 0
M  V30 4 F 7.2372 -3.069 0.0 0
M  V30 5 C 7.8792 -1.809 0.0 0
M  V30 6 N 8.467 -1.0 0.0 0
M  V30 7 C 6.9282 -1.5 0.0 0
M  V30 8 O 7.8792 -0.1909 0.0 0
M  V30 9 C 6.9282 -0.5 0.0 0
M  V30 10 C 6.0621 -2.0 0.0 0
M  V30 11 C 6.0621 0.0 0.0 0
M  V30 12 C 5.1961 -1.4999 0.0 0
M  V30 13 C 5.1961 -0.5 0.0 0
M  V30 14 C 6.0621 0.9999 0.0 0
M  V30 15 O 4.3301 0.0 0.0 0
M  V30 16 C 6.9282 1.4999 0.0 0
M  V30 17 C 3.4641 -0.5 0.0 0
M  V30 18 C 6.9282 2.4999 0.0 0
M  V30 19 C 2.598 0.0 0.0 0
M  V30 20 C 1.732 -0.5 0.0 0
M  V30 21 O 0.866 0.0 0.0 0
M  V30 22 C 0.0 -0.5 0.0 0
M  V30 23 C -0.866 0.0 0.0 0
M  V30 24 C 0.0 -1.5 0.0 0
M  V30 25 C -1.732 -0.4999 0.0 0
M  V30 26 C -0.866 -1.9999 0.0 0
M  V30 27 N -2.6831 -0.1909 0.0 0
M  V30 28 C -1.732 -1.4999 0.0 0
M  V30 29 C -3.2708 -0.9999 0.0 0
M  V30 30 C -2.9921 0.76 0.0 0
M  V30 31 C -2.6831 -1.809 0.0 0
M  V30 32 C -2.3229 1.5032 0.0 0
M  V30 33 O -1.3448 1.2953 0.0 0
M  V30 34 O -2.632 2.4542 0.0 0
M  V30 END ATOM
M  V30 BEGIN BOND
M  V30 1 1 1 2
M  V30 2 1 2 3
M  V30 3 1 2 4
M  V30 4 1 2 5
M  V30 5 2 5 6
M  V30 6 1 5 7
M  V30 7 1 6 8
M  V30 8 2 7 9
M  V30 9 1 7 10
M  V30 10 1 9 11
M  V30 11 2 10 12
M  V30 12 2 11 13
M  V30 13 1 11 14
M  V30 14 1 13 15
M  V30 15 1 14 16
M  V30 16 1 15 17
M  V30 17 1 16 18
M  V30 18 1 17 19
M  V30 19 1 19 20
M  V30 20 1 20 21
M  V30 21 1 21 22
M  V30 22 2 22 23
M  V30 23 1 22 24
M  V30 24 1 23 25
M  V30 25 2 24 26
M  V30 26 1 25 27
M  V30 27 2 25 28
M  V30 28 1 27 29
M  V30 29 1 27 30
M  V30 30 1 28 31
M  V30 31 1 30 32
M  V30 32 2 32 33
M  V30 33 1 32 34
M  V30 34 1 8 9
M  V30 35 1 12 13
M  V30 36 1 26 28
M  V30 37 2 29 31
M  V30 END BOND
M  V30 END CTAB
M  END
>  <Molecule ChEMBL ID>
CHEMBL175310

>  <Smiles>
CCCc1c(OCCCOc2ccc3ccn(CC(=O)O)c3c2)ccc2c(C(F)(F)F)noc12

>  <IC50_nM>
1047

>  <Assay Description>
Displacement of [3H]rosiglitazone from human PPAR gamma by SPA assay

$$$$
CHEMBL425921
Actelion Java MolfileCreator 2.0

  0  0  0  0  0  0              0 V3000
M  V30 BEGIN CTAB
M  V30 COUNTS 36 39 0 0 0
M  V30 BEGIN ATOM
M  V30 1 F 10.8713 -2.451 0.0 0
M  V30 2 C 9.9203 -2.76 0.0 0
M  V30 3 F 10.2293 -3.7111 0.0 0
M  V30 4 F 8.9692 -3.069 0.0 0
M  V30 5 C 9.6113 -1.809 0.0 0
M  V30 6 N 10.199 -1.0 0.0 0
M  V30 7 C 8.6602 -1.5 0.0 0
M  V30 8 O 9.6113 -0.1909 0.0 0
M  V30 9 C 8.6602 -0.5 0.0 0
M  V30 10 C 7.7942 -2.0 0.0 0
M  V30 11 C 7.7942 0.0 0.0 0
M  V30 12 C 6.9282 -1.4999 0.0 0
M  V30 13 C 6.9282 -0.5 0.0 0
M  V30 14 C 7.7942 0.9999 0.0 0
M  V30 15 O 6.0621 0.0 0.0 0
M  V30 16 C 8.6602 1.4999 0.0 0
M  V30 17 C 5.1961 -0.5 0.0 0
M  V30 18 C 8.6602 2.4999 0.0 0
M  V30 19 C 4.3301 0.0 0.0 0
M  V30 20 C 3.4641 -0.5 0.0 0
M  V30 21 C 2.598 0.0 0.0 0
M  V30 22 C 1.732 -0.5 0.0 0
M  V30 23 O 0.866 0.0 0.0 0
M  V30 24 C 0.0 -0.5 0.0 0
M  V30 25 C 0.0 -1.4999 0.0 0
M  V30 26 C -0.866 0.0 0.0 0
M  V30 27 C -0.866 -1.9999 0.0 0
M  V30 28 C -1.732 -0.4999 0.0 0
M  V30 29 C -1.732 -1.4999 0.0 0
M  V30 30 C -1.0739 -2.9781 0.0 0
M  V30 31 N -2.4751 -2.1691 0.0 0
M  V30 32 C -2.0684 -3.0826 0.0 0
M  V30 33 C -3.4533 -1.9612 0.0 0
M  V30 34 C -3.7623 -1.0101 0.0 0
M  V30 35 O -3.0932 -0.267 0.0 0
M  V30 36 O -4.7405 -0.8022 0.0 0
M  V30 END ATOM
M  V30 BEGIN BOND
M  V30 1 1 1 2
M  V30 2 1 2 3
M  V30 3 1 2 4
M  V30 4 1 2 5
M  V30 5 2 5 6
M  V30 6 1 5 7
M  V30 7 1 6 8
M  V30 8 2 7 9
M  V30 9 1 7 10
M  V30 10 1 9 11
M  V30 11 2 10 12
M  V30 12 2 11 13
M  V30 13 1 11 14
M  V30 14 1 13 15
M  V30 15 1 14 16
M  V30 16 1 15 17
M  V30 17 1 16 18
M  V30 18 1 17 19
M  V30 19 1 19 20
M  V30 20 1 20 21
M  V30 21 1 21 22
M  V30 22 1 22 23
M  V30 23 1 23 24
M  V30 24 2 24 25
M  V30 25 1 24 26
M  V30 26 1 25 27
M  V30 27 2 26 28
M  V30 28 2 27 29
M  V30 29 1 27 30
M  V30 30 1 29 31
M  V30 31 2 30 32
M  V30 32 1 31 33
M  V30 33 1 33 34
M  V30 34 2 34 35
M  V30 35 1 34 36
M  V30 36 1 8 9
M  V30 37 1 12 13
M  V30 38 1 28 29
M  V30 39 1 31 32
M  V30 END BOND
M  V30 END CTAB
M  END
>  <Molecule ChEMBL ID>
CHEMBL425921

>  <Smiles>
CCCc1c(OCCCCCOc2ccc3c(ccn3CC(=O)O)c2)ccc2c(C(F)(F)F)noc12

>  <IC50_nM>
1050

>  <Assay Description>
Displacement of [3H]rosiglitazone from human PPAR gamma by SPA assay

$$$$
CHEMBL2037184
Actelion Java MolfileCreator 2.0

  0  0  0  0  0  0              0 V3000
M  V30 BEGIN CTAB
M  V30 COUNTS 32 35 0 0 0
M  V30 BEGIN ATOM
M  V30 1 O 9.2836 2.1159 0.0 0
M  V30 2 C 8.8769 1.2024 0.0 0
M  V30 3 O 7.8987 0.9945 0.0 0
M  V30 4 N 9.3769 0.3364 0.0 0
M  V30 5 C 7.7942 0.0 0.0 0 CFG=1
M  V30 6 C 8.7077 -0.4067 0.0 0
M  V30 7 C 6.9282 -0.5 0.0 0
M  V30 8 O 8.9156 -1.3848 0.0 0
M  V30 9 C 6.0621 0.0 0.0 0
M  V30 10 C 6.9282 -1.5 0.0 0
M  V30 11 C 5.1961 -0.5 0.0 0
M  V30 12 C 6.0621 -2.0 0.0 0
M  V30 13 O 4.3301 0.0 0.0 0
M  V30 14 C 5.1961 -1.5 0.0 0
M  V30 15 C 3.4641 -0.5 0.0 0
M  V30 16 C 2.598 0.0 0.0 0
M  V30 17 C 1.732 -0.5 0.0 0
M  V30 18 O 0.866 0.0 0.0 0
M  V30 19 C 0.0 -0.5 0.0 0
M  V30 20 C -0.866 0.0 0.0 0
M  V30 21 C 0.0 -1.4999 0.0 0
M  V30 22 C -1.732 -0.4999 0.0 0
M  V30 23 C -0.866 1.0 0.0 0
M  V30 24 C -0.866 -1.9999 0.0 0
M  V30 25 C -1.732 -1.4999 0.0 0
M  V30 26 C 0.0 1.5 0.0 0
M  V30 27 C -2.598 -1.9999 0.0 0
M  V30 28 C 0.0 2.5 0.0 0
M  V30 29 C -3.5116 -1.5932 0.0 0
M  V30 30 C -2.7026 -2.9945 0.0 0
M  V30 31 C -4.1807 -2.3364 0.0 0
M  V30 32 C -3.6807 -3.2024 0.0 0
M  V30 END ATOM
M  V30 BEGIN BOND
M  V30 1 2 1 2
M  V30 2 1 2 3
M  V30 3 1 2 4
M  V30 4 1 3 5
M  V30 5 1 4 6
M  V30 6 1 5 7 CFG=1
M  V30 7 2 6 8
M  V30 8 2 7 9
M  V30 9 1 7 10
M  V30 10 1 9 11
M  V30 11 2 10 12
M  V30 12 1 11 13
M  V30 13 2 11 14
M  V30 14 1 13 15
M  V30 15 1 15 16
M  V30 16 1 16 17
M  V30 17 1 17 18
M  V30 18 1 18 19
M  V30 19 2 19 20
M  V30 20 1 19 21
M  V30 21 1 20 22
M  V30 22 1 20 23
M  V30 23 2 21 24
M  V30 24 2 22 25
M  V30 25 1 23 26
M  V30 26 1 25 27
M  V30 27 1 26 28
M  V30 28 1 27 29
M  V30 29 1 27 30
M  V30 30 1 29 31
M  V30 31 1 30 32
M  V30 32 1 5 6
M  V30 33 1 12 14
M  V30 34 1 24 25
M  V30 35 1 31 32
M  V30 END BOND
M  V30 BEGIN COLLECTION
M  V30 MDLV30/STEABS ATOMS=(1 5)
M  V30 END COLLECTION
M  V30 END CTAB
M  END
>  <Molecule ChEMBL ID>
CHEMBL2037184

>  <Smiles>
CCCc1cc(C2CCCC2)ccc1OCCCOc1cccc([C@H]2OC(=O)NC2=O)c1

>  <IC50_nM>
1059.25

>  <Assay Description>
Agonist activity at PPARgamma

$$$$
CHEMBL117165
Actelion Java MolfileCreator 2.0

  0  0  0  0  0  0              0 V3000
M  V30 BEGIN CTAB
M  V30 COUNTS 32 35 0 0 0
M  V30 BEGIN ATOM
M  V30 1 O 9.2836 2.1159 0.0 0
M  V30 2 C 8.8769 1.2024 0.0 0
M  V30 3 O 7.8987 0.9945 0.0 0
M  V30 4 N 9.3769 0.3364 0.0 0
M  V30 5 C 7.7942 0.0 0.0 0 CFG=1
M  V30 6 C 8.7077 -0.4067 0.0 0
M  V30 7 C 6.9282 -0.5 0.0 0
M  V30 8 O 8.9156 -1.3848 0.0 0
M  V30 9 C 6.0621 0.0 0.0 0
M  V30 10 C 6.9282 -1.5 0.0 0
M  V30 11 C 5.1961 -0.5 0.0 0
M  V30 12 C 6.0621 -2.0 0.0 0
M  V30 13 O 4.3301 0.0 0.0 0
M  V30 14 C 5.1961 -1.5 0.0 0
M  V30 15 C 3.4641 -0.5 0.0 0
M  V30 16 C 2.598 0.0 0.0 0
M  V30 17 C 1.732 -0.5 0.0 0
M  V30 18 O 0.866 0.0 0.0 0
M  V30 19 C 0.0 -0.5 0.0 0
M  V30 20 C -0.866 0.0 0.0 0
M  V30 21 C 0.0 -1.4999 0.0 0
M  V30 22 C -1.732 -0.4999 0.0 0
M  V30 23 C -0.866 1.0 0.0 0
M  V30 24 C -0.866 -1.9999 0.0 0
M  V30 25 C -1.732 -1.4999 0.0 0
M  V30 26 C 0.0 1.5 0.0 0
M  V30 27 C -2.598 -1.9999 0.0 0
M  V30 28 C 0.0 2.5 0.0 0
M  V30 29 C -3.5116 -1.5932 0.0 0
M  V30 30 C -2.7026 -2.9945 0.0 0
M  V30 31 C -4.1807 -2.3364 0.0 0
M  V30 32 C -3.6807 -3.2024 0.0 0
M  V30 END ATOM
M  V30 BEGIN BOND
M  V30 1 2 1 2
M  V30 2 1 2 3
M  V30 3 1 2 4
M  V30 4 1 3 5
M  V30 5 1 4 6
M  V30 6 1 5 7 CFG=1
M  V30 7 2 6 8
M  V30 8 2 7 9
M  V30 9 1 7 10
M  V30 10 1 9 11
M  V30 11 2 10 12
M  V30 12 1 11 13
M  V30 13 2 11 14
M  V30 14 1 13 15
M  V30 15 1 15 16
M  V30 16 1 16 17
M  V30 17 1 17 18
M  V30 18 1 18 19
M  V30 19 2 19 20
M  V30 20 1 19 21
M  V30 21 1 20 22
M  V30 22 1 20 23
M  V30 23 2 21 24
M  V30 24 2 22 25
M  V30 25 1 23 26
M  V30 26 1 25 27
M  V30 27 1 26 28
M  V30 28 1 27 29
M  V30 29 1 27 30
M  V30 30 1 29 31
M  V30 31 1 30 32
M  V30 32 1 5 6
M  V30 33 1 12 14
M  V30 34 1 24 25
M  V30 35 1 31 32
M  V30 END BOND
M  V30 BEGIN COLLECTION
M  V30 MDLV30/STERAC1 ATOMS=(1 5)
M  V30 END COLLECTION
M  V30 END CTAB
M  END
>  <Molecule ChEMBL ID>
CHEMBL117165

>  <Smiles>
CCCc1cc(C2CCCC2)ccc1OCCCOc1cccc(C2OC(=O)NC2=O)c1

>  <IC50_nM>
1060

>  <Assay Description>
In vitro binding affinity against human peroxisome proliferator activated receptor gamma

$$$$
CHEMBL255872
Actelion Java MolfileCreator 2.0

  0  0  0  0  0  0              0 V3000
M  V30 BEGIN CTAB
M  V30 COUNTS 41 45 0 0 0
M  V30 BEGIN ATOM
M  V30 1 F 2.232 1.6339 0.0 0
M  V30 2 C 1.732 2.5 0.0 0
M  V30 3 F 0.866 2.0 0.0 0
M  V30 4 F 1.232 3.366 0.0 0
M  V30 5 C 2.598 3.0 0.0 0
M  V30 6 N 3.4641 2.4999 0.0 0
M  V30 7 C 2.598 3.9999 0.0 0
M  V30 8 C 4.3301 3.0 0.0 0
M  V30 9 C 3.4641 4.5 0.0 0
M  V30 10 N 4.3301 4.0 0.0 0
M  V30 11 N 5.1961 2.4999 0.0 0
M  V30 12 C 5.1961 1.5 0.0 0
M  V30 13 C 6.0621 2.9999 0.0 0
M  V30 14 C 6.0621 1.0 0.0 0
M  V30 15 C 6.9282 2.4999 0.0 0
M  V30 16 C 6.9282 1.5 0.0 0 CFG=1
M  V30 17 C 6.0621 0.0 0.0 0
M  V30 18 C 7.7942 0.9999 0.0 0
M  V30 19 C 5.1961 -0.5 0.0 0
M  V30 20 O 7.7942 0.0 0.0 0
M  V30 21 O 8.6602 1.4999 0.0 0
M  V30 22 C 4.3301 0.0 0.0 0
M  V30 23 C 5.1961 -1.4999 0.0 0
M  V30 24 C 3.4641 -0.5 0.0 0
M  V30 25 C 4.3301 -1.9999 0.0 0
M  V30 26 O 2.598 0.0 0.0 0
M  V30 27 C 3.4641 -1.4999 0.0 0
M  V30 28 C 1.732 -0.5 0.0 0
M  V30 29 C 0.866 0.0 0.0 0
M  V30 30 C 0.0 -0.5 0.0 0
M  V30 31 N -0.9135 -0.0932 0.0 0
M  V30 32 C -0.1045 -1.4945 0.0 0
M  V30 33 C -1.5826 -0.8364 0.0 0
M  V30 34 O -1.0826 -1.7024 0.0 0
M  V30 35 C 0.6386 -2.1636 0.0 0
M  V30 36 C -2.5771 -0.7318 0.0 0
M  V30 37 C -2.9839 0.1816 0.0 0
M  V30 38 C -3.1649 -1.5408 0.0 0
M  V30 39 C -3.9784 0.2861 0.0 0
M  V30 40 C -4.1595 -1.4363 0.0 0
M  V30 41 C -4.5662 -0.5228 0.0 0
M  V30 END ATOM
M  V30 BEGIN BOND
M  V30 1 1 1 2
M  V30 2 1 2 3
M  V30 3 1 2 4
M  V30 4 1 2 5
M  V30 5 2 5 6
M  V30 6 1 5 7
M  V30 7 1 6 8
M  V30 8 2 7 9
M  V30 9 2 8 10
M  V30 10 1 8 11
M  V30 11 1 11 12
M  V30 12 1 11 13
M  V30 13 2 12 14
M  V30 14 1 13 15
M  V30 15 1 14 16
M  V30 16 1 14 17
M  V30 17 1 16 18 CFG=1
M  V30 18 1 17 19
M  V30 19 2 18 20
M  V30 20 1 18 21
M  V30 21 2 19 22
M  V30 22 1 19 23
M  V30 23 1 22 24
M  V30 24 2 23 25
M  V30 25 1 24 26
M  V30 26 2 24 27
M  V30 27 1 26 28
M  V30 28 1 28 29
M  V30 29 1 29 30
M  V30 30 1 30 31
M  V30 31 2 30 32
M  V30 32 2 31 33
M  V30 33 1 32 34
M  V30 34 1 32 35
M  V30 35 1 33 36
M  V30 36 2 36 37
M  V30 37 1 36 38
M  V30 38 1 37 39
M  V30 39 2 38 40
M  V30 40 2 39 41
M  V30 41 1 9 10
M  V30 42 1 15 16
M  V30 43 1 25 27
M  V30 44 1 33 34
M  V30 45 1 40 41
M  V30 END BOND
M  V30 BEGIN COLLECTION
M  V30 MDLV30/STERAC1 ATOMS=(1 16)
M  V30 END COLLECTION
M  V30 END CTAB
M  END
>  <Molecule ChEMBL ID>
CHEMBL255872

>  <Smiles>
Cc1oc(-c2ccccc2)nc1CCOc1cccc(CC2=CN(c3nccc(C(F)(F)F)n3)CCC2C(=O)O)c1

>  <IC50_nM>
1078

>  <Assay Description>
Binding affinity at human PPARalpha by fluorescence polarization

$$$$
CHEMBL1783047
Actelion Java MolfileCreator 2.0

  0  0  0  0  0  0              0 V3000
M  V30 BEGIN CTAB
M  V30 COUNTS 35 37 0 0 0
M  V30 BEGIN ATOM
M  V30 1 F 11.6913 -9.0 0.0 0
M  V30 2 C 11.6913 -7.5 0.0 0
M  V30 3 C 12.9903 -6.75 0.0 0
M  V30 4 C 10.3923 -6.75 0.0 0
M  V30 5 C 12.9903 -5.25 0.0 0
M  V30 6 C 10.3923 -5.25 0.0 0
M  V30 7 C 11.6913 -4.5 0.0 0
M  V30 8 O 11.6913 -3.0 0.0 0
M  V30 9 C 10.3923 -2.25 0.0 0
M  V30 10 C 10.3923 -0.75 0.0 0
M  V30 11 C 9.0932 -3.0 0.0 0
M  V30 12 C 9.0932 0.0 0.0 0
M  V30 13 C 7.7942 -2.25 0.0 0
M  V30 14 C 7.7942 -0.75 0.0 0
M  V30 15 C 9.0932 1.5 0.0 0
M  V30 16 O 6.4951 0.0 0.0 0
M  V30 17 C 10.3923 2.25 0.0 0
M  V30 18 C 5.1961 -0.75 0.0 0
M  V30 19 C 10.3923 3.75 0.0 0
M  V30 20 C 3.8971 0.0 0.0 0
M  V30 21 C 2.598 -0.75 0.0 0
M  V30 22 O 1.299 0.0 0.0 0
M  V30 23 C 0.0 -0.75 0.0 0
M  V30 24 C -1.299 0.0 0.0 0
M  V30 25 C 0.0 -2.25 0.0 0
M  V30 26 C -2.598 -0.75 0.0 0
M  V30 27 C -1.299 -3.0 0.0 0
M  V30 28 C -2.598 -2.25 0.0 0
M  V30 29 C -3.8971 -3.0 0.0 0
M  V30 30 C -3.8971 -4.5 0.0 0
M  V30 31 C -5.1961 -5.25 0.0 0
M  V30 32 C -3.1471 -5.799 0.0 0
M  V30 33 C -2.3971 -4.4999 0.0 0
M  V30 34 O -6.4951 -4.5 0.0 0
M  V30 35 O -5.1961 -6.75 0.0 0
M  V30 END ATOM
M  V30 BEGIN BOND
M  V30 1 1 1 2
M  V30 2 2 2 3
M  V30 3 1 2 4
M  V30 4 1 3 5
M  V30 5 2 4 6
M  V30 6 2 5 7
M  V30 7 1 7 8
M  V30 8 1 8 9
M  V30 9 2 9 10
M  V30 10 1 9 11
M  V30 11 1 10 12
M  V30 12 2 11 13
M  V30 13 2 12 14
M  V30 14 1 12 15
M  V30 15 1 14 16
M  V30 16 1 15 17
M  V30 17 1 16 18
M  V30 18 1 17 19
M  V30 19 1 18 20
M  V30 20 1 20 21
M  V30 21 1 21 22
M  V30 22 1 22 23
M  V30 23 2 23 24
M  V30 24 1 23 25
M  V30 25 1 24 26
M  V30 26 2 25 27
M  V30 27 2 26 28
M  V30 28 1 28 29
M  V30 29 1 29 30
M  V30 30 1 30 31
M  V30 31 1 30 32
M  V30 32 1 30 33
M  V30 33 2 31 34
M  V30 34 1 31 35
M  V30 35 1 6 7
M  V30 36 1 13 14
M  V30 37 1 27 28
M  V30 END BOND
M  V30 END CTAB
M  END
>  <Molecule ChEMBL ID>
CHEMBL1783047

>  <Smiles>
CCCc1cc(Oc2ccc(F)cc2)ccc1OCCCOc1ccc(CC(C)(C)C(=O)O)cc1

>  <IC50_nM>
1087

>  <Assay Description>
Displacement of radio-labeled full agonist from PPARgamma receptor

$$$$
CHEMBL469938
Actelion Java MolfileCreator 2.0

  0  0  0  0  0  0              0 V3000
M  V30 BEGIN CTAB
M  V30 COUNTS 22 24 0 0 0
M  V30 BEGIN ATOM
M  V30 1 S 3.8971 0.0 0.0 0
M  V30 2 O 4.6471 1.299 0.0 0
M  V30 3 O 3.1471 1.299 0.0 0
M  V30 4 O 5.1961 -0.75 0.0 0
M  V30 5 C 2.598 -0.75 0.0 0
M  V30 6 C 6.4952 0.0 0.0 0
M  V30 7 C 1.299 0.0 0.0 0
M  V30 8 C 7.7942 -0.75 0.0 0
M  V30 9 C 6.4952 1.5 0.0 0
M  V30 10 C 0.0 -0.75 0.0 0
M  V30 11 C 9.0932 0.0 0.0 0
M  V30 12 C 7.7942 2.25 0.0 0
M  V30 13 C -1.299 0.0 0.0 0
M  V30 14 C 0.0 -2.25 0.0 0
M  V30 15 C 9.0932 1.5 0.0 0
M  V30 16 C 10.3923 -0.75 0.0 0
M  V30 17 C -2.598 -0.75 0.0 0
M  V30 18 C -1.299 -3.0 0.0 0
M  V30 19 C 10.3923 2.25 0.0 0
M  V30 20 C 11.6913 0.0 0.0 0
M  V30 21 C -2.598 -2.25 0.0 0
M  V30 22 C 11.6913 1.5 0.0 0
M  V30 END ATOM
M  V30 BEGIN BOND
M  V30 1 2 1 2
M  V30 2 2 1 3
M  V30 3 1 1 4
M  V30 4 1 1 5
M  V30 5 1 4 6
M  V30 6 2 5 7
M  V30 7 2 6 8
M  V30 8 1 6 9
M  V30 9 1 7 10
M  V30 10 1 8 11
M  V30 11 2 9 12
M  V30 12 2 10 13
M  V30 13 1 10 14
M  V30 14 1 11 15
M  V30 15 2 11 16
M  V30 16 1 13 17
M  V30 17 2 14 18
M  V30 18 2 15 19
M  V30 19 1 16 20
M  V30 20 2 17 21
M  V30 21 1 19 22
M  V30 22 1 12 15
M  V30 23 1 18 21
M  V30 24 2 20 22
M  V30 END BOND
M  V30 END CTAB
M  END
>  <Molecule ChEMBL ID>
CHEMBL469938

>  <Smiles>
O=S(=O)(/C=C/c1ccccc1)Oc1ccc2ccccc2c1

>  <IC50_nM>
1088

>  <Assay Description>
Displacement of [3H]BRL49653 from PPARgamma ligand binding domain by scintillation proximity assay

$$$$
CHEMBL241078
Actelion Java MolfileCreator 2.0

  0  0  0  0  0  0              0 V3000
M  V30 BEGIN CTAB
M  V30 COUNTS 31 33 0 0 0
M  V30 BEGIN ATOM
M  V30 1 S 5.2531 1.5877 0.0 0
M  V30 2 C 6.0621 1.0 0.0 0
M  V30 3 C 5.5621 2.5388 0.0 0
M  V30 4 C 6.0621 0.0 0.0 0
M  V30 5 C 6.8711 1.5877 0.0 0
M  V30 6 C 6.5621 2.5388 0.0 0
M  V30 7 C 5.1961 -0.5 0.0 0
M  V30 8 C 6.9282 -0.4999 0.0 0
M  V30 9 O 4.3301 0.0 0.0 0
M  V30 10 C 5.1961 -1.4999 0.0 0
M  V30 11 C 6.9282 -1.4999 0.0 0
M  V30 12 C 3.4641 -0.5 0.0 0 CFG=1
M  V30 13 C 6.0621 -1.9999 0.0 0
M  V30 14 C 7.7942 -1.9999 0.0 0
M  V30 15 C 2.598 0.0 0.0 0
M  V30 16 C 3.4641 -1.5 0.0 0
M  V30 17 C 8.6602 -1.4999 0.0 0
M  V30 18 C 1.732 -0.5 0.0 0
M  V30 19 O 0.866 0.0 0.0 0
M  V30 20 C 0.0 -0.5 0.0 0
M  V30 21 C -0.866 0.0 0.0 0
M  V30 22 C 0.0 -1.4999 0.0 0
M  V30 23 C -1.732 -0.4999 0.0 0
M  V30 24 C -0.866 -1.9999 0.0 0
M  V30 25 C -1.732 -1.4999 0.0 0
M  V30 26 C -2.598 0.0 0.0 0
M  V30 27 C -2.598 -1.9999 0.0 0
M  V30 28 C -2.598 -2.9999 0.0 0
M  V30 29 C -3.4641 -3.4999 0.0 0
M  V30 30 O -4.3301 -2.9999 0.0 0
M  V30 31 O -3.4641 -4.4999 0.0 0
M  V30 END ATOM
M  V30 BEGIN BOND
M  V30 1 1 1 2
M  V30 2 1 1 3
M  V30 3 1 2 4
M  V30 4 2 2 5
M  V30 5 2 3 6
M  V30 6 2 4 7
M  V30 7 1 4 8
M  V30 8 1 7 9
M  V30 9 1 7 10
M  V30 10 2 8 11
M  V30 11 1 9 12
M  V30 12 2 10 13
M  V30 13 1 11 14
M  V30 14 1 12 15
M  V30 15 1 12 16 CFG=3
M  V30 16 1 14 17
M  V30 17 1 15 18
M  V30 18 1 18 19
M  V30 19 1 19 20
M  V30 20 2 20 21
M  V30 21 1 20 22
M  V30 22 1 21 23
M  V30 23 2 22 24
M  V30 24 2 23 25
M  V30 25 1 23 26
M  V30 26 1 25 27
M  V30 27 1 27 28
M  V30 28 1 28 29
M  V30 29 2 29 30
M  V30 30 1 29 31
M  V30 31 1 5 6
M  V30 32 1 11 13
M  V30 33 1 24 25
M  V30 END BOND
M  V30 BEGIN COLLECTION
M  V30 MDLV30/STEABS ATOMS=(1 12)
M  V30 END COLLECTION
M  V30 END CTAB
M  END
>  <Molecule ChEMBL ID>
CHEMBL241078

>  <Smiles>
CCc1ccc(O[C@H](C)CCOc2ccc(CCC(=O)O)c(C)c2)c(-c2cccs2)c1

>  <IC50_nM>
1088.93

>  <Assay Description>
Agonist activity at PPARgamma

$$$$
CHEMBL241078
Actelion Java MolfileCreator 2.0

  0  0  0  0  0  0              0 V3000
M  V30 BEGIN CTAB
M  V30 COUNTS 31 33 0 0 0
M  V30 BEGIN ATOM
M  V30 1 S 5.2531 1.5877 0.0 0
M  V30 2 C 6.0621 1.0 0.0 0
M  V30 3 C 5.5621 2.5388 0.0 0
M  V30 4 C 6.0621 0.0 0.0 0
M  V30 5 C 6.8711 1.5877 0.0 0
M  V30 6 C 6.5621 2.5388 0.0 0
M  V30 7 C 5.1961 -0.5 0.0 0
M  V30 8 C 6.9282 -0.4999 0.0 0
M  V30 9 O 4.3301 0.0 0.0 0
M  V30 10 C 5.1961 -1.4999 0.0 0
M  V30 11 C 6.9282 -1.4999 0.0 0
M  V30 12 C 3.4641 -0.5 0.0 0 CFG=1
M  V30 13 C 6.0621 -1.9999 0.0 0
M  V30 14 C 7.7942 -1.9999 0.0 0
M  V30 15 C 2.598 0.0 0.0 0
M  V30 16 C 3.4641 -1.5 0.0 0
M  V30 17 C 8.6602 -1.4999 0.0 0
M  V30 18 C 1.732 -0.5 0.0 0
M  V30 19 O 0.866 0.0 0.0 0
M  V30 20 C 0.0 -0.5 0.0 0
M  V30 21 C -0.866 0.0 0.0 0
M  V30 22 C 0.0 -1.4999 0.0 0
M  V30 23 C -1.732 -0.4999 0.0 0
M  V30 24 C -0.866 -1.9999 0.0 0
M  V30 25 C -1.732 -1.4999 0.0 0
M  V30 26 C -2.598 0.0 0.0 0
M  V30 27 C -2.598 -1.9999 0.0 0
M  V30 28 C -2.598 -2.9999 0.0 0
M  V30 29 C -3.4641 -3.4999 0.0 0
M  V30 30 O -4.3301 -2.9999 0.0 0
M  V30 31 O -3.4641 -4.4999 0.0 0
M  V30 END ATOM
M  V30 BEGIN BOND
M  V30 1 1 1 2
M  V30 2 1 1 3
M  V30 3 1 2 4
M  V30 4 2 2 5
M  V30 5 2 3 6
M  V30 6 2 4 7
M  V30 7 1 4 8
M  V30 8 1 7 9
M  V30 9 1 7 10
M  V30 10 2 8 11
M  V30 11 1 9 12
M  V30 12 2 10 13
M  V30 13 1 11 14
M  V30 14 1 12 15
M  V30 15 1 12 16 CFG=3
M  V30 16 1 14 17
M  V30 17 1 15 18
M  V30 18 1 18 19
M  V30 19 1 19 20
M  V30 20 2 20 21
M  V30 21 1 20 22
M  V30 22 1 21 23
M  V30 23 2 22 24
M  V30 24 2 23 25
M  V30 25 1 23 26
M  V30 26 1 25 27
M  V30 27 1 27 28
M  V30 28 1 28 29
M  V30 29 2 29 30
M  V30 30 1 29 31
M  V30 31 1 5 6
M  V30 32 1 11 13
M  V30 33 1 24 25
M  V30 END BOND
M  V30 BEGIN COLLECTION
M  V30 MDLV30/STEABS ATOMS=(1 12)
M  V30 END COLLECTION
M  V30 END CTAB
M  END
>  <Molecule ChEMBL ID>
CHEMBL241078

>  <Smiles>
CCc1ccc(O[C@H](C)CCOc2ccc(CCC(=O)O)c(C)c2)c(-c2cccs2)c1

>  <IC50_nM>
1090

>  <Assay Description>
Displacement of [3H]2-methyl-2-(4-{3-[porpyl-(5-pyridin-2yl-thiophene-2-sulfonyl)-amino]-propyl}-phenoxy)-propionic acid from human PPARgamma

$$$$
CHEMBL241078
Actelion Java MolfileCreator 2.0

  0  0  0  0  0  0              0 V3000
M  V30 BEGIN CTAB
M  V30 COUNTS 31 33 0 0 0
M  V30 BEGIN ATOM
M  V30 1 S 5.2531 1.5877 0.0 0
M  V30 2 C 6.0621 1.0 0.0 0
M  V30 3 C 5.5621 2.5388 0.0 0
M  V30 4 C 6.0621 0.0 0.0 0
M  V30 5 C 6.8711 1.5877 0.0 0
M  V30 6 C 6.5621 2.5388 0.0 0
M  V30 7 C 5.1961 -0.5 0.0 0
M  V30 8 C 6.9282 -0.4999 0.0 0
M  V30 9 O 4.3301 0.0 0.0 0
M  V30 10 C 5.1961 -1.4999 0.0 0
M  V30 11 C 6.9282 -1.4999 0.0 0
M  V30 12 C 3.4641 -0.5 0.0 0 CFG=1
M  V30 13 C 6.0621 -1.9999 0.0 0
M  V30 14 C 7.7942 -1.9999 0.0 0
M  V30 15 C 2.598 0.0 0.0 0
M  V30 16 C 3.4641 -1.5 0.0 0
M  V30 17 C 8.6602 -1.4999 0.0 0
M  V30 18 C 1.732 -0.5 0.0 0
M  V30 19 O 0.866 0.0 0.0 0
M  V30 20 C 0.0 -0.5 0.0 0
M  V30 21 C -0.866 0.0 0.0 0
M  V30 22 C 0.0 -1.4999 0.0 0
M  V30 23 C -1.732 -0.4999 0.0 0
M  V30 24 C -0.866 -1.9999 0.0 0
M  V30 25 C -1.732 -1.4999 0.0 0
M  V30 26 C -2.598 0.0 0.0 0
M  V30 27 C -2.598 -1.9999 0.0 0
M  V30 28 C -2.598 -2.9999 0.0 0
M  V30 29 C -3.4641 -3.4999 0.0 0
M  V30 30 O -4.3301 -2.9999 0.0 0
M  V30 31 O -3.4641 -4.4999 0.0 0
M  V30 END ATOM
M  V30 BEGIN BOND
M  V30 1 1 1 2
M  V30 2 1 1 3
M  V30 3 1 2 4
M  V30 4 2 2 5
M  V30 5 2 3 6
M  V30 6 2 4 7
M  V30 7 1 4 8
M  V30 8 1 7 9
M  V30 9 1 7 10
M  V30 10 2 8 11
M  V30 11 1 9 12
M  V30 12 2 10 13
M  V30 13 1 11 14
M  V30 14 1 12 15
M  V30 15 1 12 16 CFG=3
M  V30 16 1 14 17
M  V30 17 1 15 18
M  V30 18 1 18 19
M  V30 19 1 19 20
M  V30 20 2 20 21
M  V30 21 1 20 22
M  V30 22 1 21 23
M  V30 23 2 22 24
M  V30 24 2 23 25
M  V30 25 1 23 26
M  V30 26 1 25 27
M  V30 27 1 27 28
M  V30 28 1 28 29
M  V30 29 2 29 30
M  V30 30 1 29 31
M  V30 31 1 5 6
M  V30 32 1 11 13
M  V30 33 1 24 25
M  V30 END BOND
M  V30 BEGIN COLLECTION
M  V30 MDLV30/STEABS ATOMS=(1 12)
M  V30 END COLLECTION
M  V30 END CTAB
M  END
>  <Molecule ChEMBL ID>
CHEMBL241078

>  <Smiles>
CCc1ccc(O[C@H](C)CCOc2ccc(CCC(=O)O)c(C)c2)c(-c2cccs2)c1

>  <IC50_nM>
1090

>  <Assay Description>
Agonist activity at PPARgamma

$$$$
CHEMBL381876
Actelion Java MolfileCreator 2.0

  0  0  0  0  0  0              0 V3000
M  V30 BEGIN CTAB
M  V30 COUNTS 35 38 0 0 0
M  V30 BEGIN ATOM
M  V30 1 F 9.1393 -2.451 0.0 0
M  V30 2 C 8.1882 -2.76 0.0 0
M  V30 3 F 8.4972 -3.7111 0.0 0
M  V30 4 F 7.2372 -3.069 0.0 0
M  V30 5 C 7.8792 -1.809 0.0 0
M  V30 6 N 8.467 -1.0 0.0 0
M  V30 7 C 6.9282 -1.5 0.0 0
M  V30 8 O 7.8792 -0.1909 0.0 0
M  V30 9 C 6.9282 -0.5 0.0 0
M  V30 10 C 6.0621 -2.0 0.0 0
M  V30 11 C 6.0621 0.0 0.0 0
M  V30 12 C 5.1961 -1.4999 0.0 0
M  V30 13 C 5.1961 -0.5 0.0 0
M  V30 14 C 6.0621 0.9999 0.0 0
M  V30 15 O 4.3301 0.0 0.0 0
M  V30 16 C 6.9282 1.4999 0.0 0
M  V30 17 C 3.4641 -0.5 0.0 0
M  V30 18 C 6.9282 2.4999 0.0 0
M  V30 19 C 2.598 0.0 0.0 0
M  V30 20 C 1.732 -0.5 0.0 0
M  V30 21 O 0.866 0.0 0.0 0
M  V30 22 C 0.0 -0.5 0.0 0
M  V30 23 C 0.0 -1.5 0.0 0
M  V30 24 C -0.866 0.0 0.0 0
M  V30 25 C -0.866 -1.9999 0.0 0
M  V30 26 C 0.7431 -2.1691 0.0 0
M  V30 27 C -1.732 -0.4999 0.0 0
M  V30 28 N -0.6581 -2.9781 0.0 0
M  V30 29 C -1.732 -1.4999 0.0 0
M  V30 30 C 0.3364 -3.0826 0.0 0
M  V30 31 C -1.3272 -3.7212 0.0 0
M  V30 32 C -1.0182 -4.6723 0.0 0
M  V30 33 C -1.6873 -5.4154 0.0 0
M  V30 34 O -2.6655 -5.2075 0.0 0
M  V30 35 O -1.3783 -6.3665 0.0 0
M  V30 END ATOM
M  V30 BEGIN BOND
M  V30 1 1 1 2
M  V30 2 1 2 3
M  V30 3 1 2 4
M  V30 4 1 2 5
M  V30 5 2 5 6
M  V30 6 1 5 7
M  V30 7 1 6 8
M  V30 8 2 7 9
M  V30 9 1 7 10
M  V30 10 1 9 11
M  V30 11 2 10 12
M  V30 12 2 11 13
M  V30 13 1 11 14
M  V30 14 1 13 15
M  V30 15 1 14 16
M  V30 16 1 15 17
M  V30 17 1 16 18
M  V30 18 1 17 19
M  V30 19 1 19 20
M  V30 20 1 20 21
M  V30 21 1 21 22
M  V30 22 2 22 23
M  V30 23 1 22 24
M  V30 24 1 23 25
M  V30 25 1 23 26
M  V30 26 2 24 27
M  V30 27 1 25 28
M  V30 28 2 25 29
M  V30 29 2 26 30
M  V30 30 1 28 31
M  V30 31 1 31 32
M  V30 32 1 32 33
M  V30 33 2 33 34
M  V30 34 1 33 35
M  V30 35 1 8 9
M  V30 36 1 12 13
M  V30 37 1 27 29
M  V30 38 1 28 30
M  V30 END BOND
M  V30 END CTAB
M  END
>  <Molecule ChEMBL ID>
CHEMBL381876

>  <Smiles>
CCCc1c(OCCCOc2cccc3c2ccn3CCC(=O)O)ccc2c(C(F)(F)F)noc12

>  <IC50_nM>
1098

>  <Assay Description>
Displacement of [3H]rosiglitazone from human PPAR gamma by SPA assay

$$$$
CHEMBL1529347
Actelion Java MolfileCreator 2.0

  0  0  0  0  0  0              0 V3000
M  V30 BEGIN CTAB
M  V30 COUNTS 21 23 0 0 0
M  V30 BEGIN ATOM
M  V30 1 O 1.732 1.5 0.0 0
M  V30 2 C 2.598 0.9999 0.0 0
M  V30 3 C 2.598 0.0 0.0 0
M  V30 4 C 3.4641 1.4999 0.0 0
M  V30 5 C 3.4641 -0.5 0.0 0
M  V30 6 C 1.732 -0.5 0.0 0
M  V30 7 C 4.3301 0.9999 0.0 0
M  V30 8 O 4.3301 0.0 0.0 0
M  V30 9 C 3.4641 -1.5 0.0 0
M  V30 10 O 0.866 0.0 0.0 0
M  V30 11 C 1.732 -1.5 0.0 0
M  V30 12 C 5.1961 1.4999 0.0 0
M  V30 13 C 2.598 -2.0 0.0 0
M  V30 14 C 0.0 -0.5 0.0 0
M  V30 15 C 6.0621 0.9999 0.0 0
M  V30 16 C 5.1961 2.4999 0.0 0
M  V30 17 O 2.598 -3.0 0.0 0
M  V30 18 N 6.9282 1.4999 0.0 0
M  V30 19 C 6.0621 2.9999 0.0 0
M  V30 20 C 3.4641 -3.5 0.0 0
M  V30 21 C 6.9282 2.4999 0.0 0
M  V30 END ATOM
M  V30 BEGIN BOND
M  V30 1 2 1 2
M  V30 2 1 2 3
M  V30 3 1 2 4
M  V30 4 2 3 5
M  V30 5 1 3 6
M  V30 6 2 4 7
M  V30 7 1 5 8
M  V30 8 1 5 9
M  V30 9 1 6 10
M  V30 10 2 6 11
M  V30 11 1 7 12
M  V30 12 2 9 13
M  V30 13 1 10 14
M  V30 14 2 12 15
M  V30 15 1 12 16
M  V30 16 1 13 17
M  V30 17 1 15 18
M  V30 18 2 16 19
M  V30 19 1 17 20
M  V30 20 2 18 21
M  V30 21 1 7 8
M  V30 22 1 11 13
M  V30 23 1 19 21
M  V30 END BOND
M  V30 END CTAB
M  END
>  <Molecule ChEMBL ID>
CHEMBL1529347

>  <Smiles>
COc1cc(OC)c2c(=O)cc(-c3cccnc3)oc2c1

>  <IC50_nM>
1100

>  <Assay Description>
Antagonist activity at PPARgamma (unknown origin) expressed in human LNCaP cells assessed as suppression of pioglitazone-induced PPAR response element driven firefly luciferase activity measured after 24 hrs by dual luciferase reporter assay

$$$$
CHEMBL3596273
Actelion Java MolfileCreator 2.0

  0  0  0  0  0  0              0 V3000
M  V30 BEGIN CTAB
M  V30 COUNTS 29 32 0 0 0
M  V30 BEGIN ATOM
M  V30 1 Cl 2.598 0.9999 0.0 0
M  V30 2 C 1.732 1.4999 0.0 0
M  V30 3 C 0.866 0.9999 0.0 0
M  V30 4 C 1.732 2.4999 0.0 0
M  V30 5 C 0.0 1.5 0.0 0
M  V30 6 C 0.866 0.0 0.0 0
M  V30 7 C 0.866 3.0 0.0 0
M  V30 8 Cl -0.866 1.0 0.0 0
M  V30 9 C 0.0 2.5 0.0 0
M  V30 10 O 1.732 -0.5 0.0 0
M  V30 11 C 0.0 -0.5 0.0 0
M  V30 12 N -0.9135 -0.0932 0.0 0
M  V30 13 N -0.1045 -1.4945 0.0 0
M  V30 14 C -1.5826 -0.8364 0.0 0
M  V30 15 C -1.0826 -1.7024 0.0 0
M  V30 16 C 0.5646 -2.2376 0.0 0
M  V30 17 C -2.5771 -0.7318 0.0 0
M  V30 18 C -1.3916 -2.6534 0.0 0
M  V30 19 C 0.2555 -3.1887 0.0 0
M  V30 20 C -2.9839 0.1816 0.0 0
M  V30 21 C -3.1649 -1.5408 0.0 0
M  V30 22 C -0.7225 -3.3966 0.0 0
M  V30 23 F -2.3961 0.9906 0.0 0
M  V30 24 C -3.9784 0.2861 0.0 0
M  V30 25 C -4.1595 -1.4363 0.0 0
M  V30 26 C -4.5662 -0.5228 0.0 0
M  V30 27 C -5.5607 -0.4182 0.0 0
M  V30 28 O -5.9675 0.4952 0.0 0
M  V30 29 O -6.1485 -1.2273 0.0 0
M  V30 END ATOM
M  V30 BEGIN BOND
M  V30 1 1 1 2
M  V30 2 2 2 3
M  V30 3 1 2 4
M  V30 4 1 3 5
M  V30 5 1 3 6
M  V30 6 2 4 7
M  V30 7 1 5 8
M  V30 8 2 5 9
M  V30 9 2 6 10
M  V30 10 1 6 11
M  V30 11 2 11 12
M  V30 12 1 11 13
M  V30 13 1 12 14
M  V30 14 1 13 15
M  V30 15 1 13 16
M  V30 16 1 14 17
M  V30 17 1 15 18
M  V30 18 1 16 19
M  V30 19 2 17 20
M  V30 20 1 17 21
M  V30 21 1 18 22
M  V30 22 1 20 23
M  V30 23 1 20 24
M  V30 24 2 21 25
M  V30 25 2 24 26
M  V30 26 1 26 27
M  V30 27 2 27 28
M  V30 28 1 27 29
M  V30 29 1 7 9
M  V30 30 2 14 15
M  V30 31 1 19 22
M  V30 32 1 25 26
M  V30 END BOND
M  V30 END CTAB
M  END
>  <Molecule ChEMBL ID>
CHEMBL3596273

>  <Smiles>
O=C(O)c1ccc(-c2nc(C(=O)c3c(Cl)cccc3Cl)n3c2CCCC3)c(F)c1

>  <IC50_nM>
1100

>  <Assay Description>
Displacement of fluormone PPARgamma green from GST-tagged human PPARgamma-LBD after 2 hrs by fluorescence polarization assay

$$$$
CHEMBL257891
Actelion Java MolfileCreator 2.0

  0  0  0  0  0  0              0 V3000
M  V30 BEGIN CTAB
M  V30 COUNTS 38 42 0 0 0
M  V30 BEGIN ATOM
M  V30 1 O 6.687 -2.3319 0.0 0
M  V30 2 C 7.187 -1.4659 0.0 0
M  V30 3 N 8.1529 -1.2071 0.0 0
M  V30 4 C 6.9282 -0.5 0.0 0 CFG=1
M  V30 5 C 9.0189 -1.7071 0.0 0
M  V30 6 C 7.8941 -0.2411 0.0 0 CFG=2
M  V30 7 C 6.0621 0.0 0.0 0
M  V30 8 C 9.0189 -2.7071 0.0 0
M  V30 9 C 9.8849 -1.2071 0.0 0
M  V30 10 C 8.3941 0.6248 0.0 0
M  V30 11 C 5.1961 -0.5 0.0 0
M  V30 12 C 9.8849 -3.2071 0.0 0
M  V30 13 C 10.751 -1.7071 0.0 0
M  V30 14 O 9.3941 0.6248 0.0 0
M  V30 15 O 7.8941 1.4908 0.0 0
M  V30 16 C 4.3301 0.0 0.0 0
M  V30 17 C 5.1961 -1.4999 0.0 0
M  V30 18 C 10.751 -2.7071 0.0 0
M  V30 19 C 3.4641 -0.5 0.0 0
M  V30 20 C 4.3301 -1.9999 0.0 0
M  V30 21 O 11.617 -3.2071 0.0 0
M  V30 22 O 2.598 0.0 0.0 0
M  V30 23 C 3.4641 -1.4999 0.0 0
M  V30 24 C 12.483 -2.7071 0.0 0
M  V30 25 C 1.732 -0.5 0.0 0
M  V30 26 C 0.866 0.0 0.0 0
M  V30 27 C 0.0 -0.5 0.0 0
M  V30 28 N -0.9135 -0.0932 0.0 0
M  V30 29 C -0.1045 -1.4945 0.0 0
M  V30 30 C -1.5826 -0.8364 0.0 0
M  V30 31 O -1.0826 -1.7024 0.0 0
M  V30 32 C 0.6386 -2.1636 0.0 0
M  V30 33 C -2.5771 -0.7318 0.0 0
M  V30 34 C -2.9839 0.1816 0.0 0
M  V30 35 C -3.1649 -1.5408 0.0 0
M  V30 36 C -3.9784 0.2861 0.0 0
M  V30 37 C -4.1595 -1.4363 0.0 0
M  V30 38 C -4.5662 -0.5228 0.0 0
M  V30 END ATOM
M  V30 BEGIN BOND
M  V30 1 2 1 2
M  V30 2 1 2 3
M  V30 3 1 2 4
M  V30 4 1 3 5
M  V30 5 1 3 6
M  V30 6 1 4 7 CFG=3
M  V30 7 2 5 8
M  V30 8 1 5 9
M  V30 9 1 6 10 CFG=3
M  V30 10 1 7 11
M  V30 11 1 8 12
M  V30 12 2 9 13
M  V30 13 2 10 14
M  V30 14 1 10 15
M  V30 15 2 11 16
M  V30 16 1 11 17
M  V30 17 2 12 18
M  V30 18 1 16 19
M  V30 19 2 17 20
M  V30 20 1 18 21
M  V30 21 1 19 22
M  V30 22 2 19 23
M  V30 23 1 21 24
M  V30 24 1 22 25
M  V30 25 1 25 26
M  V30 26 1 26 27
M  V30 27 1 27 28
M  V30 28 2 27 29
M  V30 29 2 28 30
M  V30 30 1 29 31
M  V30 31 1 29 32
M  V30 32 1 30 33
M  V30 33 2 33 34
M  V30 34 1 33 35
M  V30 35 1 34 36
M  V30 36 2 35 37
M  V30 37 2 36 38
M  V30 38 1 4 6
M  V30 39 1 13 18
M  V30 40 1 20 23
M  V30 41 1 30 31
M  V30 42 1 37 38
M  V30 END BOND
M  V30 BEGIN COLLECTION
M  V30 MDLV30/STEABS ATOMS=(2 4 6)
M  V30 END COLLECTION
M  V30 END CTAB
M  END
>  <Molecule ChEMBL ID>
CHEMBL257891

>  <Smiles>
COc1ccc(N2C(=O)[C@H](Cc3cccc(OCCc4nc(-c5ccccc5)oc4C)c3)[C@@H]2C(=O)O)cc1

>  <IC50_nM>
1100

>  <Assay Description>
Inhibition of PPARgamma

$$$$
CHEMBL5278668
Actelion Java MolfileCreator 2.0

  0  0  0  0  0  0              0 V3000
M  V30 BEGIN CTAB
M  V30 COUNTS 26 28 0 0 0
M  V30 BEGIN ATOM
M  V30 1 Cl 6.0621 -1.9999 0.0 0
M  V30 2 C 5.1961 -1.4999 0.0 0
M  V30 3 C 5.1961 -0.5 0.0 0
M  V30 4 C 4.3301 -1.9999 0.0 0
M  V30 5 C 6.0621 0.0 0.0 0
M  V30 6 C 4.3301 0.0 0.0 0
M  V30 7 C 3.4641 -1.5 0.0 0
M  V30 8 O 6.0621 0.9999 0.0 0
M  V30 9 N 6.9282 -0.5 0.0 0
M  V30 10 C 3.4641 -0.5 0.0 0
M  V30 11 C 7.7942 0.0 0.0 0
M  V30 12 C 2.598 0.0 0.0 0
M  V30 13 C 8.6602 -0.5 0.0 0
M  V30 14 C 7.7942 0.9999 0.0 0
M  V30 15 O 2.598 1.0 0.0 0
M  V30 16 N 1.732 -0.5 0.0 0
M  V30 17 C 9.5262 0.0 0.0 0
M  V30 18 C 8.6602 1.4999 0.0 0
M  V30 19 C 0.866 0.0 0.0 0
M  V30 20 C 9.5262 0.9999 0.0 0
M  V30 21 C 0.0 -0.5 0.0 0
M  V30 22 C -0.866 0.0 0.0 0
M  V30 23 C 0.0 -1.4999 0.0 0
M  V30 24 C -1.732 -0.4999 0.0 0
M  V30 25 C -0.866 -1.9999 0.0 0
M  V30 26 C -1.732 -1.4999 0.0 0
M  V30 END ATOM
M  V30 BEGIN BOND
M  V30 1 1 1 2
M  V30 2 2 2 3
M  V30 3 1 2 4
M  V30 4 1 3 5
M  V30 5 1 3 6
M  V30 6 2 4 7
M  V30 7 2 5 8
M  V30 8 1 5 9
M  V30 9 2 6 10
M  V30 10 1 9 11
M  V30 11 1 10 12
M  V30 12 2 11 13
M  V30 13 1 11 14
M  V30 14 2 12 15
M  V30 15 1 12 16
M  V30 16 1 13 17
M  V30 17 2 14 18
M  V30 18 1 16 19
M  V30 19 2 17 20
M  V30 20 1 19 21
M  V30 21 2 21 22
M  V30 22 1 21 23
M  V30 23 1 22 24
M  V30 24 2 23 25
M  V30 25 2 24 26
M  V30 26 1 7 10
M  V30 27 1 18 20
M  V30 28 1 25 26
M  V30 END BOND
M  V30 END CTAB
M  END
>  <Molecule ChEMBL ID>
CHEMBL5278668

>  <Smiles>
O=C(NCc1ccccc1)c1ccc(Cl)c(C(=O)Nc2ccccc2)c1

>  <IC50_nM>
1120

>  <Assay Description>
Inverse agonist activity at human PPARgamma in human RT112/84 transfected with NLuc-fused FABP4 assessed as reduction in PPARgamma transactivation incubated for 6 to 18 hrs by Nano-Glo luciferase assay

$$$$
CHEMBL198929
Actelion Java MolfileCreator 2.0

  0  0  0  0  0  0              0 V3000
M  V30 BEGIN CTAB
M  V30 COUNTS 36 40 0 0 0
M  V30 BEGIN ATOM
M  V30 1 F 9.1393 -2.451 0.0 0
M  V30 2 C 8.1882 -2.76 0.0 0
M  V30 3 F 8.4972 -3.7111 0.0 0
M  V30 4 F 7.2372 -3.069 0.0 0
M  V30 5 C 7.8792 -1.809 0.0 0
M  V30 6 N 8.467 -1.0 0.0 0
M  V30 7 C 6.9282 -1.5 0.0 0
M  V30 8 O 7.8792 -0.1909 0.0 0
M  V30 9 C 6.9282 -0.5 0.0 0
M  V30 10 C 6.0621 -2.0 0.0 0
M  V30 11 C 6.0621 0.0 0.0 0
M  V30 12 C 5.1961 -1.4999 0.0 0
M  V30 13 C 5.1961 -0.5 0.0 0
M  V30 14 C 6.0621 0.9999 0.0 0
M  V30 15 O 4.3301 0.0 0.0 0
M  V30 16 C 6.9282 1.4999 0.0 0
M  V30 17 C 3.4641 -0.5 0.0 0
M  V30 18 C 6.9282 2.4999 0.0 0
M  V30 19 C 2.598 0.0 0.0 0
M  V30 20 C 1.732 -0.5 0.0 0
M  V30 21 O 0.866 0.0 0.0 0
M  V30 22 C 0.0 -0.5 0.0 0
M  V30 23 C 0.0 -1.4999 0.0 0
M  V30 24 C -0.866 0.0 0.0 0
M  V30 25 C -0.866 -1.9999 0.0 0
M  V30 26 C -1.732 -0.4999 0.0 0
M  V30 27 C -1.732 -1.4999 0.0 0
M  V30 28 C -1.0739 -2.9781 0.0 0
M  V30 29 N -2.4751 -2.1691 0.0 0
M  V30 30 C -2.0684 -3.0826 0.0 0
M  V30 31 C -3.4533 -1.9612 0.0 0
M  V30 32 C -4.1224 -2.7043 0.0 0
M  V30 33 N -5.1169 -2.5998 0.0 0
M  V30 34 N -3.9145 -3.6825 0.0 0
M  V30 35 N -5.5237 -3.5133 0.0 0
M  V30 36 N -4.7805 -4.1825 0.0 0
M  V30 END ATOM
M  V30 BEGIN BOND
M  V30 1 1 1 2
M  V30 2 1 2 3
M  V30 3 1 2 4
M  V30 4 1 2 5
M  V30 5 2 5 6
M  V30 6 1 5 7
M  V30 7 1 6 8
M  V30 8 2 7 9
M  V30 9 1 7 10
M  V30 10 1 9 11
M  V30 11 2 10 12
M  V30 12 2 11 13
M  V30 13 1 11 14
M  V30 14 1 13 15
M  V30 15 1 14 16
M  V30 16 1 15 17
M  V30 17 1 16 18
M  V30 18 1 17 19
M  V30 19 1 19 20
M  V30 20 1 20 21
M  V30 21 1 21 22
M  V30 22 2 22 23
M  V30 23 1 22 24
M  V30 24 1 23 25
M  V30 25 2 24 26
M  V30 26 2 25 27
M  V30 27 1 25 28
M  V30 28 1 27 29
M  V30 29 2 28 30
M  V30 30 1 29 31
M  V30 31 1 31 32
M  V30 32 1 32 33
M  V30 33 2 32 34
M  V30 34 2 33 35
M  V30 35 1 34 36
M  V30 36 1 8 9
M  V30 37 1 12 13
M  V30 38 1 26 27
M  V30 39 1 29 30
M  V30 40 1 35 36
M  V30 END BOND
M  V30 END CTAB
M  END
>  <Molecule ChEMBL ID>
CHEMBL198929

>  <Smiles>
CCCc1c(OCCCOc2ccc3c(ccn3Cc3nn[nH]n3)c2)ccc2c(C(F)(F)F)noc12

>  <IC50_nM>
1123

>  <Assay Description>
Displacement of [3H]rosiglitazone from human PPAR gamma by SPA assay

$$$$
CHEMBL215126
Actelion Java MolfileCreator 2.0

  0  0  0  0  0  0              0 V3000
M  V30 BEGIN CTAB
M  V30 COUNTS 34 36 0 0 0
M  V30 BEGIN ATOM
M  V30 1 O 5.1961 1.5 0.0 0
M  V30 2 C 6.0621 1.0 0.0 0
M  V30 3 C 6.0621 0.0 0.0 0
M  V30 4 C 6.9282 1.5 0.0 0
M  V30 5 C 5.1961 -0.5 0.0 0
M  V30 6 C 6.9282 -0.4999 0.0 0
M  V30 7 C 7.7942 0.9999 0.0 0
M  V30 8 C 6.9282 2.4999 0.0 0
M  V30 9 O 4.3301 0.0 0.0 0
M  V30 10 C 5.1961 -1.4999 0.0 0
M  V30 11 C 6.9282 -1.4999 0.0 0
M  V30 12 C 8.6602 1.4999 0.0 0
M  V30 13 C 7.7942 2.9999 0.0 0
M  V30 14 C 3.4641 -0.5 0.0 0 CFG=2
M  V30 15 C 6.0621 -1.9999 0.0 0
M  V30 16 C 7.7942 -1.9999 0.0 0
M  V30 17 C 8.6602 2.4999 0.0 0
M  V30 18 C 2.598 0.0 0.0 0
M  V30 19 C 3.4641 -1.5 0.0 0
M  V30 20 C 8.6602 -1.4999 0.0 0
M  V30 21 C 1.732 -0.5 0.0 0
M  V30 22 O 0.866 0.0 0.0 0
M  V30 23 C 0.0 -0.5 0.0 0
M  V30 24 C -0.866 0.0 0.0 0
M  V30 25 C 0.0 -1.4999 0.0 0
M  V30 26 C -1.732 -0.4999 0.0 0
M  V30 27 C -0.866 -1.9999 0.0 0
M  V30 28 C -1.732 -1.4999 0.0 0
M  V30 29 C -2.598 0.0 0.0 0
M  V30 30 C -2.598 -1.9999 0.0 0
M  V30 31 C -2.598 -2.9999 0.0 0
M  V30 32 C -3.4641 -3.4999 0.0 0
M  V30 33 O -4.3301 -2.9999 0.0 0
M  V30 34 O -3.4641 -4.4999 0.0 0
M  V30 END ATOM
M  V30 BEGIN BOND
M  V30 1 2 1 2
M  V30 2 1 2 3
M  V30 3 1 2 4
M  V30 4 2 3 5
M  V30 5 1 3 6
M  V30 6 2 4 7
M  V30 7 1 4 8
M  V30 8 1 5 9
M  V30 9 1 5 10
M  V30 10 2 6 11
M  V30 11 1 7 12
M  V30 12 2 8 13
M  V30 13 1 9 14
M  V30 14 2 10 15
M  V30 15 1 11 16
M  V30 16 2 12 17
M  V30 17 1 14 18
M  V30 18 1 14 19 CFG=1
M  V30 19 1 16 20
M  V30 20 1 18 21
M  V30 21 1 21 22
M  V30 22 1 22 23
M  V30 23 2 23 24
M  V30 24 1 23 25
M  V30 25 1 24 26
M  V30 26 2 25 27
M  V30 27 2 26 28
M  V30 28 1 26 29
M  V30 29 1 28 30
M  V30 30 1 30 31
M  V30 31 1 31 32
M  V30 32 2 32 33
M  V30 33 1 32 34
M  V30 34 1 11 15
M  V30 35 1 13 17
M  V30 36 1 27 28
M  V30 END BOND
M  V30 BEGIN COLLECTION
M  V30 MDLV30/STEABS ATOMS=(1 14)
M  V30 END COLLECTION
M  V30 END CTAB
M  END
>  <Molecule ChEMBL ID>
CHEMBL215126

>  <Smiles>
CCc1ccc(O[C@@H](C)CCOc2ccc(CCC(=O)O)c(C)c2)c(C(=O)c2ccccc2)c1

>  <IC50_nM>
1130

>  <Assay Description>
Displacement of [3H]2-methyl-2-(4-{3-[propyl-(5-pyridin-2-yl-thiophene-2-sulfonyl)-amino]-propyl}-phenoxy)-propionic acid from human PPARgamma by SPA

$$$$
CHEMBL3977442
Actelion Java MolfileCreator 2.0

  0  0  0  0  0  0              0 V3000
M  V30 BEGIN CTAB
M  V30 COUNTS 34 37 0 0 0
M  V30 BEGIN ATOM
M  V30 1 S 5.1961 -0.75 0.0 0
M  V30 2 O 4.4461 -2.049 0.0 0
M  V30 3 O 5.9461 -2.049 0.0 0
M  V30 4 N 3.8971 0.0 0.0 0
M  V30 5 C 6.4951 0.0 0.0 0
M  V30 6 C 2.598 -0.75 0.0 0
M  V30 7 C 7.7942 -0.75 0.0 0
M  V30 8 C 6.4951 1.5 0.0 0
M  V30 9 O 2.598 -2.25 0.0 0
M  V30 10 N 1.299 0.0 0.0 0
M  V30 11 C 9.0932 0.0 0.0 0
M  V30 12 C 7.7942 2.25 0.0 0
M  V30 13 C 0.0 -0.75 0.0 0
M  V30 14 C 9.0932 1.5 0.0 0
M  V30 15 C -1.299 0.0 0.0 0
M  V30 16 C 0.0 -2.25 0.0 0
M  V30 17 N 10.3923 2.25 0.0 0
M  V30 18 C -2.598 -0.75 0.0 0
M  V30 19 C -1.299 -3.0 0.0 0
M  V30 20 C 10.3923 3.75 0.0 0
M  V30 21 C -2.598 -2.25 0.0 0
M  V30 22 C 11.6913 4.5 0.0 0
M  V30 23 O 12.9903 3.75 0.0 0
M  V30 24 N 11.6913 6.0 0.0 0
M  V30 25 C 12.9903 6.75 0.0 0
M  V30 26 C 10.3923 6.75 0.0 0
M  V30 27 C 12.9903 8.25 0.0 0
M  V30 28 C 14.2894 6.0 0.0 0
M  V30 29 C 10.3923 8.25 0.0 0
M  V30 30 N 11.6913 9.0 0.0 0
M  V30 31 C 14.2894 9.0 0.0 0
M  V30 32 C 15.5884 6.75 0.0 0
M  V30 33 O 9.0932 9.0 0.0 0
M  V30 34 C 15.5884 8.25 0.0 0
M  V30 END ATOM
M  V30 BEGIN BOND
M  V30 1 2 1 2
M  V30 2 2 1 3
M  V30 3 1 1 4
M  V30 4 1 1 5
M  V30 5 1 4 6
M  V30 6 2 5 7
M  V30 7 1 5 8
M  V30 8 2 6 9
M  V30 9 1 6 10
M  V30 10 1 7 11
M  V30 11 2 8 12
M  V30 12 1 10 13
M  V30 13 2 11 14
M  V30 14 1 13 15
M  V30 15 1 13 16
M  V30 16 1 14 17
M  V30 17 1 15 18
M  V30 18 1 16 19
M  V30 19 1 17 20
M  V30 20 1 18 21
M  V30 21 1 20 22
M  V30 22 2 22 23
M  V30 23 1 22 24
M  V30 24 1 24 25
M  V30 25 1 24 26
M  V30 26 2 25 27
M  V30 27 1 25 28
M  V30 28 1 26 29
M  V30 29 1 27 30
M  V30 30 1 27 31
M  V30 31 2 28 32
M  V30 32 2 29 33
M  V30 33 2 31 34
M  V30 34 1 12 14
M  V30 35 1 19 21
M  V30 36 1 29 30
M  V30 37 1 32 34
M  V30 END BOND
M  V30 END CTAB
M  END
>  <Molecule ChEMBL ID>
CHEMBL3977442

>  <Smiles>
O=C1CN(C(=O)CNc2ccc(S(=O)(=O)NC(=O)NC3CCCCC3)cc2)c2ccccc2N1

>  <IC50_nM>
1141

>  <Assay Description>
Displacement of fluormone-PPARgamma Green from recombinant human N-terminal GST-tagged PPARgamma-LBD by fluorescence polarization assay

$$$$
CHEMBL1526763
Actelion Java MolfileCreator 2.0

  0  0  0  0  0  0              0 V3000
M  V30 BEGIN CTAB
M  V30 COUNTS 29 32 0 0 0
M  V30 BEGIN ATOM
M  V30 1 O 3.4921 2.7787 0.0 0
M  V30 2 C 2.541 3.0877 0.0 0
M  V30 3 C 2.232 4.0388 0.0 0
M  V30 4 C 1.732 2.5 0.0 0
M  V30 5 C 1.232 4.0388 0.0 0
M  V30 6 C 2.732 4.9048 0.0 0
M  V30 7 C 0.923 3.0877 0.0 0
M  V30 8 C 1.732 1.4999 0.0 0
M  V30 9 C 0.732 4.9048 0.0 0
M  V30 10 C 2.232 5.7708 0.0 0
M  V30 11 O -0.028 2.7787 0.0 0
M  V30 12 C 2.598 1.0 0.0 0
M  V30 13 C 1.232 5.7708 0.0 0
M  V30 14 C 2.598 0.0 0.0 0
M  V30 15 C 3.4641 1.4999 0.0 0
M  V30 16 O 1.732 -0.5 0.0 0
M  V30 17 C 3.4641 -0.5 0.0 0
M  V30 18 C 4.3301 1.0 0.0 0
M  V30 19 C 0.866 0.0 0.0 0
M  V30 20 C 4.3301 0.0 0.0 0
M  V30 21 C 0.0 -0.5 0.0 0
M  V30 22 C -0.866 0.0 0.0 0
M  V30 23 C 0.0 -1.4999 0.0 0
M  V30 24 C -1.732 -0.4999 0.0 0
M  V30 25 C -0.866 -1.9999 0.0 0
M  V30 26 C -1.732 -1.4999 0.0 0
M  V30 27 C -2.598 -1.9999 0.0 0
M  V30 28 O -3.4641 -1.4999 0.0 0
M  V30 29 O -2.598 -2.9999 0.0 0
M  V30 END ATOM
M  V30 BEGIN BOND
M  V30 1 2 1 2
M  V30 2 1 2 3
M  V30 3 1 2 4
M  V30 4 2 3 5
M  V30 5 1 3 6
M  V30 6 1 4 7
M  V30 7 2 4 8
M  V30 8 1 5 9
M  V30 9 2 6 10
M  V30 10 2 7 11
M  V30 11 1 8 12
M  V30 12 2 9 13
M  V30 13 2 12 14
M  V30 14 1 12 15
M  V30 15 1 14 16
M  V30 16 1 14 17
M  V30 17 2 15 18
M  V30 18 1 16 19
M  V30 19 2 17 20
M  V30 20 1 19 21
M  V30 21 2 21 22
M  V30 22 1 21 23
M  V30 23 1 22 24
M  V30 24 2 23 25
M  V30 25 2 24 26
M  V30 26 1 26 27
M  V30 27 2 27 28
M  V30 28 1 27 29
M  V30 29 1 5 7
M  V30 30 1 10 13
M  V30 31 1 18 20
M  V30 32 1 25 26
M  V30 END BOND
M  V30 END CTAB
M  END
>  <Molecule ChEMBL ID>
CHEMBL1526763

>  <Smiles>
O=C(O)c1ccc(COc2ccccc2C=C2C(=O)c3ccccc3C2=O)cc1

>  <IC50_nM>
1144

>  <Assay Description>
Displacement of fluormone from human PPARgamma LBD expressed in Escherichia coli BL21 DE3 by fluorescence polarization assay

$$$$
CHEMBL3949291
Actelion Java MolfileCreator 2.0

  0  0  0  0  0  0              0 V3000
M  V30 BEGIN CTAB
M  V30 COUNTS 34 37 0 0 0
M  V30 BEGIN ATOM
M  V30 1 S 5.1961 -0.75 0.0 0
M  V30 2 O 4.4461 -2.049 0.0 0
M  V30 3 O 5.9461 -2.049 0.0 0
M  V30 4 N 3.8971 0.0 0.0 0
M  V30 5 C 6.4951 0.0 0.0 0
M  V30 6 C 2.598 -0.75 0.0 0
M  V30 7 C 7.7942 -0.75 0.0 0
M  V30 8 C 6.4951 1.5 0.0 0
M  V30 9 O 2.598 -2.25 0.0 0
M  V30 10 N 1.299 0.0 0.0 0
M  V30 11 C 9.0932 0.0 0.0 0
M  V30 12 C 7.7942 2.25 0.0 0
M  V30 13 C 0.0 -0.75 0.0 0
M  V30 14 C 9.0932 1.5 0.0 0
M  V30 15 C -1.299 0.0 0.0 0
M  V30 16 C 0.0 -2.25 0.0 0
M  V30 17 N 10.3923 2.25 0.0 0
M  V30 18 C -2.598 -0.75 0.0 0
M  V30 19 C -1.299 -3.0 0.0 0
M  V30 20 C 10.3923 3.75 0.0 0
M  V30 21 C -2.598 -2.25 0.0 0
M  V30 22 O 9.0932 4.5 0.0 0
M  V30 23 C 11.6913 4.5 0.0 0
M  V30 24 N 11.6913 6.0 0.0 0
M  V30 25 C 12.9903 6.75 0.0 0
M  V30 26 C 10.3923 6.75 0.0 0
M  V30 27 C 12.9903 8.25 0.0 0
M  V30 28 C 14.2894 6.0 0.0 0
M  V30 29 C 10.3923 8.25 0.0 0
M  V30 30 N 11.6913 9.0 0.0 0
M  V30 31 C 14.2894 9.0 0.0 0
M  V30 32 C 15.5884 6.75 0.0 0
M  V30 33 O 9.0932 9.0 0.0 0
M  V30 34 C 15.5884 8.25 0.0 0
M  V30 END ATOM
M  V30 BEGIN BOND
M  V30 1 2 1 2
M  V30 2 2 1 3
M  V30 3 1 1 4
M  V30 4 1 1 5
M  V30 5 1 4 6
M  V30 6 2 5 7
M  V30 7 1 5 8
M  V30 8 2 6 9
M  V30 9 1 6 10
M  V30 10 1 7 11
M  V30 11 2 8 12
M  V30 12 1 10 13
M  V30 13 2 11 14
M  V30 14 1 13 15
M  V30 15 1 13 16
M  V30 16 1 14 17
M  V30 17 1 15 18
M  V30 18 1 16 19
M  V30 19 1 17 20
M  V30 20 1 18 21
M  V30 21 2 20 22
M  V30 22 1 20 23
M  V30 23 1 23 24
M  V30 24 1 24 25
M  V30 25 1 24 26
M  V30 26 2 25 27
M  V30 27 1 25 28
M  V30 28 1 26 29
M  V30 29 1 27 30
M  V30 30 1 27 31
M  V30 31 2 28 32
M  V30 32 2 29 33
M  V30 33 2 31 34
M  V30 34 1 12 14
M  V30 35 1 19 21
M  V30 36 1 29 30
M  V30 37 1 32 34
M  V30 END BOND
M  V30 END CTAB
M  END
>  <Molecule ChEMBL ID>
CHEMBL3949291

>  <Smiles>
O=C(CN1CC(=O)Nc2ccccc21)Nc1ccc(S(=O)(=O)NC(=O)NC2CCCCC2)cc1

>  <IC50_nM>
1150

>  <Assay Description>
Displacement of fluormone-PPARgamma Green from recombinant human N-terminal GST-tagged PPARgamma-LBD by fluorescence polarization assay

$$$$
CHEMBL3398452
Actelion Java MolfileCreator 2.0

  0  0  0  0  0  0              0 V3000
M  V30 BEGIN CTAB
M  V30 COUNTS 40 44 0 0 0
M  V30 BEGIN ATOM
M  V30 1 F 6.1136 -7.5772 0.0 0
M  V30 2 C 5.2 -7.9839 0.0 0
M  V30 3 F 5.6068 -8.8975 0.0 0
M  V30 4 F 4.2865 -8.3907 0.0 0
M  V30 5 C 4.7933 -7.0704 0.0 0
M  V30 6 N 5.3811 -6.2614 0.0 0
M  V30 7 C 3.7988 -6.9658 0.0 0
M  V30 8 C 4.9743 -5.3478 0.0 0
M  V30 9 C 3.392 -6.0523 0.0 0
M  V30 10 N 3.9798 -5.2433 0.0 0
M  V30 11 N 5.5621 -4.5388 0.0 0
M  V30 12 C 6.5621 -4.5388 0.0 0
M  V30 13 C 5.2531 -3.5877 0.0 0
M  V30 14 C 6.8711 -3.5877 0.0 0 CFG=2
M  V30 15 C 6.0621 -3.0 0.0 0 CFG=2
M  V30 16 C 7.8222 -3.2787 0.0 0
M  V30 17 C 6.0621 -2.0 0.0 0
M  V30 18 O 8.5653 -3.9478 0.0 0
M  V30 19 O 8.0301 -2.3006 0.0 0
M  V30 20 C 5.1961 -1.4999 0.0 0
M  V30 21 C 5.1961 -0.5 0.0 0
M  V30 22 C 4.3301 -1.9999 0.0 0
M  V30 23 C 4.3301 0.0 0.0 0
M  V30 24 C 3.4641 -1.5 0.0 0
M  V30 25 C 3.4641 -0.5 0.0 0
M  V30 26 O 2.598 0.0 0.0 0
M  V30 27 C 1.732 -0.5 0.0 0
M  V30 28 C 0.866 0.0 0.0 0
M  V30 29 C 0.0 -0.5 0.0 0
M  V30 30 N -0.9135 -0.0932 0.0 0
M  V30 31 C -0.1045 -1.4945 0.0 0
M  V30 32 C -1.5826 -0.8364 0.0 0
M  V30 33 O -1.0826 -1.7024 0.0 0
M  V30 34 C 0.6386 -2.1636 0.0 0
M  V30 35 C -2.5771 -0.7318 0.0 0
M  V30 36 C -2.9839 0.1816 0.0 0
M  V30 37 C -3.1649 -1.5408 0.0 0
M  V30 38 C -3.9784 0.2861 0.0 0
M  V30 39 C -4.1595 -1.4363 0.0 0
M  V30 40 C -4.5662 -0.5228 0.0 0
M  V30 END ATOM
M  V30 BEGIN BOND
M  V30 1 1 1 2
M  V30 2 1 2 3
M  V30 3 1 2 4
M  V30 4 1 2 5
M  V30 5 2 5 6
M  V30 6 1 5 7
M  V30 7 1 6 8
M  V30 8 2 7 9
M  V30 9 2 8 10
M  V30 10 1 8 11
M  V30 11 1 11 12
M  V30 12 1 11 13
M  V30 13 1 12 14
M  V30 14 1 13 15
M  V30 15 1 14 16 CFG=3
M  V30 16 1 15 17 CFG=1
M  V30 17 2 16 18
M  V30 18 1 16 19
M  V30 19 1 17 20
M  V30 20 2 20 21
M  V30 21 1 20 22
M  V30 22 1 21 23
M  V30 23 2 22 24
M  V30 24 2 23 25
M  V30 25 1 25 26
M  V30 26 1 26 27
M  V30 27 1 27 28
M  V30 28 1 28 29
M  V30 29 1 29 30
M  V30 30 2 29 31
M  V30 31 2 30 32
M  V30 32 1 31 33
M  V30 33 1 31 34
M  V30 34 1 32 35
M  V30 35 2 35 36
M  V30 36 1 35 37
M  V30 37 1 36 38
M  V30 38 2 37 39
M  V30 39 2 38 40
M  V30 40 1 9 10
M  V30 41 1 14 15
M  V30 42 1 24 25
M  V30 43 1 32 33
M  V30 44 1 39 40
M  V30 END BOND
M  V30 BEGIN COLLECTION
M  V30 MDLV30/STEABS ATOMS=(2 14 15)
M  V30 END COLLECTION
M  V30 END CTAB
M  END
>  <Molecule ChEMBL ID>
CHEMBL3398452

>  <Smiles>
Cc1oc(-c2ccccc2)nc1CCOc1ccc(C[C@@H]2CN(c3nccc(C(F)(F)F)n3)C[C@H]2C(=O)O)cc1

>  <IC50_nM>
1160

>  <Assay Description>
Binding affinity to PPARgamma (unknown origin) using fluorescein-tagged dual PPARalpha/gamma activator by homogeneous fluorescence polarization binding assay

$$$$
CHEMBL1783056
Actelion Java MolfileCreator 2.0

  0  0  0  0  0  0              0 V3000
M  V30 BEGIN CTAB
M  V30 COUNTS 34 37 0 0 0
M  V30 BEGIN ATOM
M  V30 1 O 10.3923 -3.5 0.0 0
M  V30 2 C 9.5262 -3.0 0.0 0
M  V30 3 C 9.5262 -2.0 0.0 0
M  V30 4 C 8.6602 -3.5 0.0 0
M  V30 5 C 8.6602 -1.5 0.0 0
M  V30 6 C 7.7942 -2.9999 0.0 0
M  V30 7 C 7.7942 -2.0 0.0 0
M  V30 8 C 6.9282 -1.5 0.0 0
M  V30 9 C 6.9282 -0.5 0.0 0
M  V30 10 C 6.0621 -2.0 0.0 0
M  V30 11 C 6.0621 0.0 0.0 0
M  V30 12 C 5.1961 -1.5 0.0 0
M  V30 13 C 5.1961 -0.5 0.0 0
M  V30 14 C 6.0621 0.9999 0.0 0
M  V30 15 O 4.3301 0.0 0.0 0
M  V30 16 C 6.9282 1.4999 0.0 0
M  V30 17 C 3.4641 -0.5 0.0 0
M  V30 18 C 6.9282 2.4999 0.0 0
M  V30 19 C 2.598 0.0 0.0 0
M  V30 20 C 1.732 -0.5 0.0 0
M  V30 21 O 0.866 0.0 0.0 0
M  V30 22 C 0.0 -0.5 0.0 0
M  V30 23 C -0.866 0.0 0.0 0
M  V30 24 C 0.0 -1.4999 0.0 0
M  V30 25 C -1.732 -0.4999 0.0 0
M  V30 26 C -0.866 -1.9999 0.0 0
M  V30 27 C -1.732 -1.4999 0.0 0
M  V30 28 C -2.598 0.0 0.0 0 CFG=1
M  V30 29 O -2.7026 0.9945 0.0 0
M  V30 30 C -3.5116 -0.4067 0.0 0
M  V30 31 C -3.6807 1.2024 0.0 0
M  V30 32 O -3.7195 -1.3848 0.0 0
M  V30 33 N -4.1807 0.3364 0.0 0
M  V30 34 O -4.0874 2.1159 0.0 0
M  V30 END ATOM
M  V30 BEGIN BOND
M  V30 1 2 1 2
M  V30 2 1 2 3
M  V30 3 1 2 4
M  V30 4 1 3 5
M  V30 5 1 4 6
M  V30 6 1 5 7
M  V30 7 1 7 8
M  V30 8 2 8 9
M  V30 9 1 8 10
M  V30 10 1 9 11
M  V30 11 2 10 12
M  V30 12 2 11 13
M  V30 13 1 11 14
M  V30 14 1 13 15
M  V30 15 1 14 16
M  V30 16 1 15 17
M  V30 17 1 16 18
M  V30 18 1 17 19
M  V30 19 1 19 20
M  V30 20 1 20 21
M  V30 21 1 21 22
M  V30 22 2 22 23
M  V30 23 1 22 24
M  V30 24 1 23 25
M  V30 25 2 24 26
M  V30 26 2 25 27
M  V30 27 1 28 25 CFG=3
M  V30 28 1 28 29
M  V30 29 1 28 30
M  V30 30 1 29 31
M  V30 31 2 30 32
M  V30 32 1 30 33
M  V30 33 2 31 34
M  V30 34 1 6 7
M  V30 35 1 12 13
M  V30 36 1 26 27
M  V30 37 1 31 33
M  V30 END BOND
M  V30 BEGIN COLLECTION
M  V30 MDLV30/STEABS ATOMS=(1 28)
M  V30 END COLLECTION
M  V30 END CTAB
M  END
>  <Molecule ChEMBL ID>
CHEMBL1783056

>  <Smiles>
CCCc1cc(C2CCC(=O)CC2)ccc1OCCCOc1cccc([C@H]2OC(=O)NC2=O)c1

>  <IC50_nM>
1160

>  <Assay Description>
Displacement of radio-labeled full agonist from PPARgamma receptor

$$$$
CHEMBL419768
Actelion Java MolfileCreator 2.0

  0  0  0  0  0  0              0 V3000
M  V30 BEGIN CTAB
M  V30 COUNTS 34 37 0 0 0
M  V30 BEGIN ATOM
M  V30 1 O 10.3923 -3.5 0.0 0
M  V30 2 C 9.5262 -3.0 0.0 0
M  V30 3 C 9.5262 -2.0 0.0 0
M  V30 4 C 8.6602 -3.5 0.0 0
M  V30 5 C 8.6602 -1.5 0.0 0
M  V30 6 C 7.7942 -2.9999 0.0 0
M  V30 7 C 7.7942 -2.0 0.0 0
M  V30 8 C 6.9282 -1.5 0.0 0
M  V30 9 C 6.9282 -0.5 0.0 0
M  V30 10 C 6.0621 -2.0 0.0 0
M  V30 11 C 6.0621 0.0 0.0 0
M  V30 12 C 5.1961 -1.5 0.0 0
M  V30 13 C 5.1961 -0.5 0.0 0
M  V30 14 C 6.0621 0.9999 0.0 0
M  V30 15 O 4.3301 0.0 0.0 0
M  V30 16 C 6.9282 1.4999 0.0 0
M  V30 17 C 3.4641 -0.5 0.0 0
M  V30 18 C 6.9282 2.4999 0.0 0
M  V30 19 C 2.598 0.0 0.0 0
M  V30 20 C 1.732 -0.5 0.0 0
M  V30 21 O 0.866 0.0 0.0 0
M  V30 22 C 0.0 -0.5 0.0 0
M  V30 23 C -0.866 0.0 0.0 0
M  V30 24 C 0.0 -1.4999 0.0 0
M  V30 25 C -1.732 -0.4999 0.0 0
M  V30 26 C -0.866 -1.9999 0.0 0
M  V30 27 C -1.732 -1.4999 0.0 0
M  V30 28 C -2.598 0.0 0.0 0 CFG=1
M  V30 29 O -2.7026 0.9945 0.0 0
M  V30 30 C -3.5116 -0.4067 0.0 0
M  V30 31 C -3.6807 1.2024 0.0 0
M  V30 32 O -3.7195 -1.3848 0.0 0
M  V30 33 N -4.1807 0.3364 0.0 0
M  V30 34 O -4.0874 2.1159 0.0 0
M  V30 END ATOM
M  V30 BEGIN BOND
M  V30 1 2 1 2
M  V30 2 1 2 3
M  V30 3 1 2 4
M  V30 4 1 3 5
M  V30 5 1 4 6
M  V30 6 1 5 7
M  V30 7 1 7 8
M  V30 8 2 8 9
M  V30 9 1 8 10
M  V30 10 1 9 11
M  V30 11 2 10 12
M  V30 12 2 11 13
M  V30 13 1 11 14
M  V30 14 1 13 15
M  V30 15 1 14 16
M  V30 16 1 15 17
M  V30 17 1 16 18
M  V30 18 1 17 19
M  V30 19 1 19 20
M  V30 20 1 20 21
M  V30 21 1 21 22
M  V30 22 2 22 23
M  V30 23 1 22 24
M  V30 24 1 23 25
M  V30 25 2 24 26
M  V30 26 2 25 27
M  V30 27 1 28 25 CFG=3
M  V30 28 1 28 29
M  V30 29 1 28 30
M  V30 30 1 29 31
M  V30 31 2 30 32
M  V30 32 1 30 33
M  V30 33 2 31 34
M  V30 34 1 6 7
M  V30 35 1 12 13
M  V30 36 1 26 27
M  V30 37 1 31 33
M  V30 END BOND
M  V30 BEGIN COLLECTION
M  V30 MDLV30/STERAC1 ATOMS=(1 28)
M  V30 END COLLECTION
M  V30 END CTAB
M  END
>  <Molecule ChEMBL ID>
CHEMBL419768

>  <Smiles>
CCCc1cc(C2CCC(=O)CC2)ccc1OCCCOc1cccc(C2OC(=O)NC2=O)c1

>  <IC50_nM>
1160

>  <Assay Description>
In vitro binding affinity against human peroxisome proliferator activated receptor gamma

$$$$
CHEMBL257180
Actelion Java MolfileCreator 2.0

  0  0  0  0  0  0              0 V3000
M  V30 BEGIN CTAB
M  V30 COUNTS 38 41 0 0 0
M  V30 BEGIN ATOM
M  V30 1 O 9.0932 -4.4999 0.0 0
M  V30 2 C 7.7942 -5.25 0.0 0
M  V30 3 O 7.7942 -6.75 0.0 0
M  V30 4 N 6.4951 -4.4999 0.0 0
M  V30 5 C 6.4951 -7.5 0.0 0
M  V30 6 C 5.1961 -5.25 0.0 0
M  V30 7 C 6.4951 -3.0 0.0 0
M  V30 8 C 6.4951 -9.0 0.0 0
M  V30 9 C 3.8971 -4.5 0.0 0
M  V30 10 C 5.1961 -2.2499 0.0 0
M  V30 11 C 7.7942 -9.75 0.0 0
M  V30 12 C 5.1961 -9.75 0.0 0
M  V30 13 C 3.8971 -3.0 0.0 0
M  V30 14 C 2.598 -5.25 0.0 0
M  V30 15 C 2.598 -2.25 0.0 0
M  V30 16 C 2.598 -6.75 0.0 0
M  V30 17 O 1.299 -3.0 0.0 0
M  V30 18 O 2.598 -0.75 0.0 0
M  V30 19 C 1.299 -7.5 0.0 0
M  V30 20 C 3.8971 -7.5 0.0 0
M  V30 21 C 1.299 -9.0 0.0 0
M  V30 22 C 3.8971 -9.0 0.0 0
M  V30 23 C 2.598 -9.75 0.0 0
M  V30 24 O 2.598 -11.25 0.0 0
M  V30 25 C 3.8971 -12.0 0.0 0
M  V30 26 C 3.8971 -13.5 0.0 0
M  V30 27 C 5.1961 -14.25 0.0 0
M  V30 28 N 5.3529 -15.7417 0.0 0
M  V30 29 C 6.5664 -13.6398 0.0 0
M  V30 30 C 6.8201 -16.0536 0.0 0
M  V30 31 O 7.5701 -14.7546 0.0 0
M  V30 32 C 6.8783 -12.1726 0.0 0
M  V30 33 C 7.4302 -17.4239 0.0 0
M  V30 34 C 6.5485 -18.6374 0.0 0
M  V30 35 C 8.922 -17.5807 0.0 0
M  V30 36 C 7.1586 -20.0078 0.0 0
M  V30 37 C 9.5321 -18.951 0.0 0
M  V30 38 C 8.6504 -20.1646 0.0 0
M  V30 END ATOM
M  V30 BEGIN BOND
M  V30 1 2 1 2
M  V30 2 1 2 3
M  V30 3 1 2 4
M  V30 4 1 3 5
M  V30 5 1 4 6
M  V30 6 1 4 7
M  V30 7 1 5 8
M  V30 8 1 6 9
M  V30 9 1 7 10
M  V30 10 1 8 11
M  V30 11 1 8 12
M  V30 12 2 9 13
M  V30 13 1 9 14
M  V30 14 1 13 15
M  V30 15 1 14 16
M  V30 16 2 15 17
M  V30 17 1 15 18
M  V30 18 2 16 19
M  V30 19 1 16 20
M  V30 20 1 19 21
M  V30 21 2 20 22
M  V30 22 2 21 23
M  V30 23 1 23 24
M  V30 24 1 24 25
M  V30 25 1 25 26
M  V30 26 1 26 27
M  V30 27 1 27 28
M  V30 28 2 27 29
M  V30 29 2 28 30
M  V30 30 1 29 31
M  V30 31 1 29 32
M  V30 32 1 30 33
M  V30 33 2 33 34
M  V30 34 1 33 35
M  V30 35 1 34 36
M  V30 36 2 35 37
M  V30 37 2 36 38
M  V30 38 1 10 13
M  V30 39 1 22 23
M  V30 40 1 30 31
M  V30 41 1 37 38
M  V30 END BOND
M  V30 END CTAB
M  END
>  <Molecule ChEMBL ID>
CHEMBL257180

>  <Smiles>
Cc1oc(-c2ccccc2)nc1CCOc1ccc(CC2=C(C(=O)O)CCN(C(=O)OCC(C)C)C2)cc1

>  <IC50_nM>
1170

>  <Assay Description>
Binding affinity at human PPARalpha by fluorescence polarization

$$$$
CHEMBL467711
Actelion Java MolfileCreator 2.0

  0  0  0  0  0  0              0 V3000
M  V30 BEGIN CTAB
M  V30 COUNTS 19 20 0 0 0
M  V30 BEGIN ATOM
M  V30 1 S 3.8971 0.0 0.0 0
M  V30 2 O 4.6471 1.299 0.0 0
M  V30 3 O 3.1471 1.299 0.0 0
M  V30 4 O 5.1961 -0.75 0.0 0
M  V30 5 C 2.598 -0.75 0.0 0
M  V30 6 C 6.4952 0.0 0.0 0
M  V30 7 C 1.299 0.0 0.0 0
M  V30 8 C 7.7942 -0.75 0.0 0
M  V30 9 C 6.4952 1.5 0.0 0
M  V30 10 C 0.0 -0.75 0.0 0
M  V30 11 C 9.0932 0.0 0.0 0
M  V30 12 C 7.7942 2.25 0.0 0
M  V30 13 C -1.299 0.0 0.0 0
M  V30 14 C 0.0 -2.25 0.0 0
M  V30 15 C 9.0932 1.5 0.0 0
M  V30 16 C 10.3923 -0.75 0.0 0
M  V30 17 C -2.598 -0.75 0.0 0
M  V30 18 C -1.299 -3.0 0.0 0
M  V30 19 C -2.598 -2.25 0.0 0
M  V30 END ATOM
M  V30 BEGIN BOND
M  V30 1 2 1 2
M  V30 2 2 1 3
M  V30 3 1 1 4
M  V30 4 1 1 5
M  V30 5 1 4 6
M  V30 6 2 5 7
M  V30 7 2 6 8
M  V30 8 1 6 9
M  V30 9 1 7 10
M  V30 10 1 8 11
M  V30 11 2 9 12
M  V30 12 2 10 13
M  V30 13 1 10 14
M  V30 14 2 11 15
M  V30 15 1 11 16
M  V30 16 1 13 17
M  V30 17 2 14 18
M  V30 18 2 17 19
M  V30 19 1 12 15
M  V30 20 1 18 19
M  V30 END BOND
M  V30 END CTAB
M  END
>  <Molecule ChEMBL ID>
CHEMBL467711

>  <Smiles>
Cc1cccc(OS(=O)(=O)/C=C/c2ccccc2)c1

>  <IC50_nM>
1187

>  <Assay Description>
Displacement of [3H]BRL49653 from PPARgamma ligand binding domain by scintillation proximity assay

$$$$
CHEMBL1089970
Actelion Java MolfileCreator 2.0

  0  0  0  0  0  0              0 V3000
M  V30 BEGIN CTAB
M  V30 COUNTS 42 46 0 0 0
M  V30 BEGIN ATOM
M  V30 1 O 5.1961 1.4999 0.0 0
M  V30 2 C 4.3301 0.9999 0.0 0
M  V30 3 O 4.3301 0.0 0.0 0
M  V30 4 N 3.4641 1.4999 0.0 0
M  V30 5 C 5.1961 -0.5 0.0 0
M  V30 6 C 2.598 1.0 0.0 0
M  V30 7 C 3.4641 2.4999 0.0 0
M  V30 8 C 6.0621 0.0 0.0 0
M  V30 9 C 5.1961 -1.5 0.0 0
M  V30 10 C 1.732 1.5 0.0 0
M  V30 11 C 4.3301 2.9999 0.0 0
M  V30 12 C 6.9282 -0.5 0.0 0
M  V30 13 C 6.0621 -2.0 0.0 0
M  V30 14 C 1.732 2.5 0.0 0
M  V30 15 C 0.866 1.0 0.0 0
M  V30 16 O 5.1961 2.4999 0.0 0
M  V30 17 O 4.3301 3.9999 0.0 0
M  V30 18 C 6.9282 -1.5 0.0 0
M  V30 19 C 0.866 3.0 0.0 0
M  V30 20 C 0.0 1.5 0.0 0
M  V30 21 C 7.7942 -2.0 0.0 0
M  V30 22 O 0.866 4.0 0.0 0
M  V30 23 C 0.0 2.5 0.0 0
M  V30 24 C 1.732 4.5 0.0 0
M  V30 25 C 1.732 5.5 0.0 0
M  V30 26 N 2.541 6.0877 0.0 0
M  V30 27 C 0.923 6.0877 0.0 0
M  V30 28 C 2.232 7.0388 0.0 0
M  V30 29 O 1.232 7.0388 0.0 0
M  V30 30 C -0.028 5.7787 0.0 0
M  V30 31 C 2.8198 7.8478 0.0 0
M  V30 32 C 3.8143 7.7433 0.0 0
M  V30 33 C 2.413 8.7614 0.0 0
M  V30 34 C 4.4021 8.5523 0.0 0
M  V30 35 C 3.0008 9.5704 0.0 0
M  V30 36 C 3.9954 9.4658 0.0 0
M  V30 37 N 4.5831 10.2749 0.0 0
M  V30 38 C 5.5777 10.1703 0.0 0
M  V30 39 C 4.1764 11.1884 0.0 0
M  V30 40 C 6.1654 10.9793 0.0 0
M  V30 41 C 4.7642 11.9974 0.0 0
M  V30 42 O 5.7587 11.8929 0.0 0
M  V30 END ATOM
M  V30 BEGIN BOND
M  V30 1 2 1 2
M  V30 2 1 2 3
M  V30 3 1 2 4
M  V30 4 1 3 5
M  V30 5 1 4 6
M  V30 6 1 4 7
M  V30 7 2 5 8
M  V30 8 1 5 9
M  V30 9 1 6 10
M  V30 10 1 7 11
M  V30 11 1 8 12
M  V30 12 2 9 13
M  V30 13 2 10 14
M  V30 14 1 10 15
M  V30 15 2 11 16
M  V30 16 1 11 17
M  V30 17 2 12 18
M  V30 18 1 14 19
M  V30 19 2 15 20
M  V30 20 1 18 21
M  V30 21 1 19 22
M  V30 22 2 19 23
M  V30 23 1 22 24
M  V30 24 1 24 25
M  V30 25 1 25 26
M  V30 26 2 25 27
M  V30 27 2 26 28
M  V30 28 1 27 29
M  V30 29 1 27 30
M  V30 30 1 28 31
M  V30 31 2 31 32
M  V30 32 1 31 33
M  V30 33 1 32 34
M  V30 34 2 33 35
M  V30 35 2 34 36
M  V30 36 1 36 37
M  V30 37 1 37 38
M  V30 38 1 37 39
M  V30 39 1 38 40
M  V30 40 1 39 41
M  V30 41 1 40 42
M  V30 42 1 13 18
M  V30 43 1 20 23
M  V30 44 1 28 29
M  V30 45 1 35 36
M  V30 46 1 41 42
M  V30 END BOND
M  V30 END CTAB
M  END
>  <Molecule ChEMBL ID>
CHEMBL1089970

>  <Smiles>
Cc1ccc(OC(=O)N(CC(=O)O)Cc2cccc(OCc3nc(-c4ccc(N5CCOCC5)cc4)oc3C)c2)cc1

>  <IC50_nM>
1194

>  <Assay Description>
Binding affinity to human His-tagged PPARgamma LBD (Q203-Y477) expressed in Escherichia coli BL21 (DE3) by fluorescence polarization assay

$$$$
CHEMBL207907
Actelion Java MolfileCreator 2.0

  0  0  0  0  0  0              0 V3000
M  V30 BEGIN CTAB
M  V30 COUNTS 34 37 0 0 0
M  V30 BEGIN ATOM
M  V30 1 F 11.987 3.659 0.0 0
M  V30 2 C 11.6752 2.1918 0.0 0
M  V30 3 F 13.1424 1.8799 0.0 0
M  V30 4 F 11.3633 0.7246 0.0 0
M  V30 5 C 10.2079 2.5036 0.0 0
M  V30 6 N 9.5978 3.874 0.0 0
M  V30 7 C 9.0932 1.4999 0.0 0
M  V30 8 O 8.106 3.7172 0.0 0
M  V30 9 C 7.7942 2.2499 0.0 0
M  V30 10 C 9.0932 0.0 0.0 0
M  V30 11 C 6.4951 1.4999 0.0 0
M  V30 12 C 7.7942 -0.75 0.0 0
M  V30 13 C 6.4951 0.0 0.0 0
M  V30 14 C 5.1961 2.25 0.0 0
M  V30 15 O 5.1961 -0.75 0.0 0
M  V30 16 C 5.1961 3.75 0.0 0
M  V30 17 C 3.8971 0.0 0.0 0
M  V30 18 C 3.8971 4.5 0.0 0
M  V30 19 C 2.598 -0.75 0.0 0
M  V30 20 C 1.299 0.0 0.0 0
M  V30 21 N 0.0 -0.75 0.0 0
M  V30 22 C -1.3703 -0.1398 0.0 0
M  V30 23 C -0.1567 -2.2417 0.0 0
M  V30 24 C -2.374 -1.2546 0.0 0
M  V30 25 C -1.8338 1.2866 0.0 0
M  V30 26 C -1.624 -2.5536 0.0 0
M  V30 27 C -3.8412 -0.9427 0.0 0
M  V30 28 C -3.301 1.5985 0.0 0
M  V30 29 C -4.3047 0.4838 0.0 0
M  V30 30 C -5.7719 0.7957 0.0 0
M  V30 31 C -6.7756 -0.319 0.0 0
M  V30 32 C -8.2428 -0.0071 0.0 0
M  V30 33 O -8.7064 1.4194 0.0 0
M  V30 34 O -9.2465 -1.1218 0.0 0
M  V30 END ATOM
M  V30 BEGIN BOND
M  V30 1 1 1 2
M  V30 2 1 2 3
M  V30 3 1 2 4
M  V30 4 1 2 5
M  V30 5 2 5 6
M  V30 6 1 5 7
M  V30 7 1 6 8
M  V30 8 2 7 9
M  V30 9 1 7 10
M  V30 10 1 9 11
M  V30 11 2 10 12
M  V30 12 2 11 13
M  V30 13 1 11 14
M  V30 14 1 13 15
M  V30 15 1 14 16
M  V30 16 1 15 17
M  V30 17 1 16 18
M  V30 18 1 17 19
M  V30 19 1 19 20
M  V30 20 1 20 21
M  V30 21 1 21 22
M  V30 22 1 21 23
M  V30 23 2 22 24
M  V30 24 1 22 25
M  V30 25 2 23 26
M  V30 26 1 24 27
M  V30 27 2 25 28
M  V30 28 2 27 29
M  V30 29 1 29 30
M  V30 30 1 30 31
M  V30 31 1 31 32
M  V30 32 2 32 33
M  V30 33 1 32 34
M  V30 34 1 8 9
M  V30 35 1 12 13
M  V30 36 1 24 26
M  V30 37 1 28 29
M  V30 END BOND
M  V30 END CTAB
M  END
>  <Molecule ChEMBL ID>
CHEMBL207907

>  <Smiles>
CCCc1c(OCCCn2ccc3cc(CCC(=O)O)ccc32)ccc2c(C(F)(F)F)noc12

>  <IC50_nM>
1199.5

>  <Assay Description>
Agonist activity at PPARgamma

$$$$
CHEMBL111271
Actelion Java MolfileCreator 2.0

  0  0  0  0  0  0              0 V3000
M  V30 BEGIN CTAB
M  V30 COUNTS 37 40 0 0 0
M  V30 BEGIN ATOM
M  V30 1 F 7.7942 -6.0 0.0 0
M  V30 2 C 7.7942 -5.0 0.0 0
M  V30 3 C 8.6602 -4.5 0.0 0
M  V30 4 C 6.9282 -4.5 0.0 0
M  V30 5 C 8.6602 -3.5 0.0 0
M  V30 6 C 6.9282 -3.5 0.0 0
M  V30 7 C 7.7942 -3.0 0.0 0
M  V30 8 O 7.7942 -2.0 0.0 0
M  V30 9 C 6.9282 -1.5 0.0 0
M  V30 10 C 6.9282 -0.5 0.0 0
M  V30 11 C 6.0621 -2.0 0.0 0
M  V30 12 C 6.0621 0.0 0.0 0
M  V30 13 C 5.1961 -1.5 0.0 0
M  V30 14 C 5.1961 -0.5 0.0 0
M  V30 15 C 6.0621 0.9999 0.0 0
M  V30 16 O 4.3301 0.0 0.0 0
M  V30 17 C 6.9282 1.4999 0.0 0
M  V30 18 C 3.4641 -0.5 0.0 0
M  V30 19 C 6.9282 2.4999 0.0 0
M  V30 20 C 2.598 0.0 0.0 0
M  V30 21 C 1.732 -0.5 0.0 0
M  V30 22 O 0.866 0.0 0.0 0
M  V30 23 C 0.0 -0.5 0.0 0
M  V30 24 C -0.866 0.0 0.0 0
M  V30 25 C 0.0 -1.4999 0.0 0
M  V30 26 C -1.732 -0.4999 0.0 0
M  V30 27 C -0.866 -1.9999 0.0 0
M  V30 28 O -2.598 0.0 0.0 0
M  V30 29 C -1.732 -1.4999 0.0 0
M  V30 30 C -3.4641 -0.4999 0.0 0 CFG=2
M  V30 31 C -2.598 -1.9999 0.0 0
M  V30 32 C -3.4641 0.5 0.0 0
M  V30 33 C -3.4641 -1.4999 0.0 0
M  V30 34 C -4.3301 0.0 0.0 0
M  V30 35 O -4.3301 1.0 0.0 0
M  V30 36 O -2.598 1.0 0.0 0
M  V30 37 C -5.1961 -0.4999 0.0 0
M  V30 END ATOM
M  V30 BEGIN BOND
M  V30 1 1 1 2
M  V30 2 2 2 3
M  V30 3 1 2 4
M  V30 4 1 3 5
M  V30 5 2 4 6
M  V30 6 2 5 7
M  V30 7 1 7 8
M  V30 8 1 8 9
M  V30 9 2 9 10
M  V30 10 1 9 11
M  V30 11 1 10 12
M  V30 12 2 11 13
M  V30 13 2 12 14
M  V30 14 1 12 15
M  V30 15 1 14 16
M  V30 16 1 15 17
M  V30 17 1 16 18
M  V30 18 1 17 19
M  V30 19 1 18 20
M  V30 20 1 20 21
M  V30 21 1 21 22
M  V30 22 1 22 23
M  V30 23 2 23 24
M  V30 24 1 23 25
M  V30 25 1 24 26
M  V30 26 2 25 27
M  V30 27 1 26 28
M  V30 28 2 26 29
M  V30 29 1 28 30
M  V30 30 1 29 31
M  V30 31 1 30 32 CFG=1
M  V30 32 1 30 33
M  V30 33 1 30 34
M  V30 34 2 32 35
M  V30 35 1 32 36
M  V30 36 1 34 37
M  V30 37 1 6 7
M  V30 38 1 13 14
M  V30 39 1 27 29
M  V30 40 1 31 33
M  V30 END BOND
M  V30 BEGIN COLLECTION
M  V30 MDLV30/STERAC1 ATOMS=(1 30)
M  V30 END COLLECTION
M  V30 END CTAB
M  END
>  <Molecule ChEMBL ID>
CHEMBL111271

>  <Smiles>
CCCc1cc(Oc2ccc(F)cc2)ccc1OCCCOc1ccc2c(c1)OC(CC)(C(=O)O)CC2

>  <IC50_nM>
1200

>  <Assay Description>
In vitro binding affinity for human peroxisome proliferator activated receptor gamma using scintillation proximity assay (SPA)

$$$$
CHEMBL2031859
Actelion Java MolfileCreator 2.0

  0  0  0  0  0  0              0 V3000
M  V30 BEGIN CTAB
M  V30 COUNTS 28 29 0 0 0
M  V30 BEGIN ATOM
M  V30 1 O 7.7942 1.0 0.0 0
M  V30 2 C 7.7942 0.0 0.0 0
M  V30 3 C 6.9282 -0.5 0.0 0
M  V30 4 C 8.6602 -0.4999 0.0 0
M  V30 5 C 6.9282 -1.4999 0.0 0
M  V30 6 C 6.0621 0.0 0.0 0
M  V30 7 C 8.6602 -1.4999 0.0 0
M  V30 8 O 6.0621 -1.9999 0.0 0
M  V30 9 C 7.7942 -2.0 0.0 0
M  V30 10 C 5.1961 -0.5 0.0 0
M  V30 11 C 9.5262 -1.9999 0.0 0
M  V30 12 C 4.3301 0.0 0.0 0
M  V30 13 C 9.5262 -2.9999 0.0 0
M  V30 14 C 3.4641 -0.5 0.0 0
M  V30 15 C 4.3301 1.0 0.0 0
M  V30 16 C 10.3923 -3.4999 0.0 0
M  V30 17 C 2.598 0.0 0.0 0
M  V30 18 C 10.3923 -4.4999 0.0 0
M  V30 19 C 11.2583 -2.9999 0.0 0
M  V30 20 C 1.732 -0.5 0.0 0
M  V30 21 C 11.2583 -4.9999 0.0 0
M  V30 22 C 12.1243 -3.4999 0.0 0
M  V30 23 C 0.866 0.0 0.0 0
M  V30 24 C 12.1243 -4.4999 0.0 0
M  V30 25 C 0.866 1.0 0.0 0
M  V30 26 C 0.0 -0.5 0.0 0
M  V30 27 C 12.9903 -4.9999 0.0 0
M  V30 28 N 13.8564 -5.4999 0.0 0
M  V30 END ATOM
M  V30 BEGIN BOND
M  V30 1 1 1 2
M  V30 2 2 2 3
M  V30 3 1 2 4
M  V30 4 1 3 5
M  V30 5 1 3 6
M  V30 6 2 4 7
M  V30 7 1 5 8
M  V30 8 2 5 9
M  V30 9 1 6 10
M  V30 10 1 7 11
M  V30 11 2 10 12
M  V30 12 2 11 13
M  V30 13 1 12 14
M  V30 14 1 12 15
M  V30 15 1 13 16
M  V30 16 1 14 17
M  V30 17 2 16 18
M  V30 18 1 16 19
M  V30 19 1 17 20
M  V30 20 1 18 21
M  V30 21 2 19 22
M  V30 22 2 20 23
M  V30 23 2 21 24
M  V30 24 1 23 25
M  V30 25 1 23 26
M  V30 26 1 24 27
M  V30 27 3 27 28
M  V30 28 1 7 9
M  V30 29 1 22 24
M  V30 END BOND
M  V30 END CTAB
M  END
>  <Molecule ChEMBL ID>
CHEMBL2031859

>  <Smiles>
CC(C)=CCC/C(C)=C/Cc1c(O)cc(/C=C/c2ccc(C#N)cc2)cc1O

>  <IC50_nM>
1200

>  <Assay Description>
Binding affinity to GST-tagged human PPARgamma by TR-FRET analysis

$$$$
CHEMBL109773
Actelion Java MolfileCreator 2.0

  0  0  0  0  0  0              0 V3000
M  V30 BEGIN CTAB
M  V30 COUNTS 38 41 0 0 0
M  V30 BEGIN ATOM
M  V30 1 O 14.2894 1.4999 0.0 0
M  V30 2 C 12.9903 0.75 0.0 0
M  V30 3 O 11.6913 1.5 0.0 0
M  V30 4 C 12.9903 -0.75 0.0 0 CFG=1
M  V30 5 O 11.6913 0.0 0.0 0
M  V30 6 C 12.9903 -2.25 0.0 0
M  V30 7 C 14.2894 0.0 0.0 0
M  V30 8 C 10.3923 -0.75 0.0 0
M  V30 9 C 11.6913 -3.0 0.0 0
M  V30 10 C 15.5884 -0.7499 0.0 0
M  V30 11 C 10.3923 -2.25 0.0 0
M  V30 12 C 9.0932 0.0 0.0 0
M  V30 13 C 16.8874 0.0 0.0 0
M  V30 14 C 15.5884 -2.2499 0.0 0
M  V30 15 C 9.0932 -3.0 0.0 0
M  V30 16 C 7.7942 -0.75 0.0 0
M  V30 17 C 7.7942 -2.25 0.0 0
M  V30 18 O 6.4951 0.0 0.0 0
M  V30 19 C 5.1961 -0.75 0.0 0
M  V30 20 C 3.8971 0.0 0.0 0
M  V30 21 C 2.598 -0.75 0.0 0
M  V30 22 O 1.299 0.0 0.0 0
M  V30 23 C 0.0 -0.75 0.0 0
M  V30 24 C -1.299 0.0 0.0 0
M  V30 25 C 0.0 -2.25 0.0 0
M  V30 26 C -2.598 -0.7499 0.0 0
M  V30 27 C -1.299 1.5 0.0 0
M  V30 28 C -1.299 -2.9999 0.0 0
M  V30 29 C -2.598 -2.2499 0.0 0
M  V30 30 C 0.0 2.25 0.0 0
M  V30 31 O -3.8971 -2.9999 0.0 0
M  V30 32 C 0.0 3.75 0.0 0
M  V30 33 C -3.8971 -4.4999 0.0 0
M  V30 34 C -5.1961 -5.2499 0.0 0
M  V30 35 C -2.598 -5.2499 0.0 0
M  V30 36 C -5.1961 -6.7499 0.0 0
M  V30 37 C -2.598 -6.7499 0.0 0
M  V30 38 C -3.8971 -7.4999 0.0 0
M  V30 END ATOM
M  V30 BEGIN BOND
M  V30 1 2 1 2
M  V30 2 1 2 3
M  V30 3 1 4 2 CFG=3
M  V30 4 1 4 5
M  V30 5 1 4 6
M  V30 6 1 4 7
M  V30 7 1 5 8
M  V30 8 1 6 9
M  V30 9 1 7 10
M  V30 10 2 8 11
M  V30 11 1 8 12
M  V30 12 1 10 13
M  V30 13 1 10 14
M  V30 14 1 11 15
M  V30 15 2 12 16
M  V30 16 2 15 17
M  V30 17 1 16 18
M  V30 18 1 18 19
M  V30 19 1 19 20
M  V30 20 1 20 21
M  V30 21 1 21 22
M  V30 22 1 22 23
M  V30 23 2 23 24
M  V30 24 1 23 25
M  V30 25 1 24 26
M  V30 26 1 24 27
M  V30 27 2 25 28
M  V30 28 2 26 29
M  V30 29 1 27 30
M  V30 30 1 29 31
M  V30 31 1 30 32
M  V30 32 1 31 33
M  V30 33 2 33 34
M  V30 34 1 33 35
M  V30 35 1 34 36
M  V30 36 2 35 37
M  V30 37 2 36 38
M  V30 38 1 9 11
M  V30 39 1 16 17
M  V30 40 1 28 29
M  V30 41 1 37 38
M  V30 END BOND
M  V30 BEGIN COLLECTION
M  V30 MDLV30/STERAC1 ATOMS=(1 4)
M  V30 END COLLECTION
M  V30 END CTAB
M  END
>  <Molecule ChEMBL ID>
CHEMBL109773

>  <Smiles>
CCCc1cc(Oc2ccccc2)ccc1OCCCOc1ccc2c(c1)OC(CC(C)C)(C(=O)O)CC2

>  <IC50_nM>
1200

>  <Assay Description>
In vitro binding affinity for human peroxisome proliferator activated receptor gamma using scintillation proximity assay (SPA)

$$$$
CHEMBL207907
Actelion Java MolfileCreator 2.0

  0  0  0  0  0  0              0 V3000
M  V30 BEGIN CTAB
M  V30 COUNTS 34 37 0 0 0
M  V30 BEGIN ATOM
M  V30 1 F 11.987 3.659 0.0 0
M  V30 2 C 11.6752 2.1918 0.0 0
M  V30 3 F 13.1424 1.8799 0.0 0
M  V30 4 F 11.3633 0.7246 0.0 0
M  V30 5 C 10.2079 2.5036 0.0 0
M  V30 6 N 9.5978 3.874 0.0 0
M  V30 7 C 9.0932 1.4999 0.0 0
M  V30 8 O 8.106 3.7172 0.0 0
M  V30 9 C 7.7942 2.2499 0.0 0
M  V30 10 C 9.0932 0.0 0.0 0
M  V30 11 C 6.4951 1.4999 0.0 0
M  V30 12 C 7.7942 -0.75 0.0 0
M  V30 13 C 6.4951 0.0 0.0 0
M  V30 14 C 5.1961 2.25 0.0 0
M  V30 15 O 5.1961 -0.75 0.0 0
M  V30 16 C 5.1961 3.75 0.0 0
M  V30 17 C 3.8971 0.0 0.0 0
M  V30 18 C 3.8971 4.5 0.0 0
M  V30 19 C 2.598 -0.75 0.0 0
M  V30 20 C 1.299 0.0 0.0 0
M  V30 21 N 0.0 -0.75 0.0 0
M  V30 22 C -1.3703 -0.1398 0.0 0
M  V30 23 C -0.1567 -2.2417 0.0 0
M  V30 24 C -2.374 -1.2546 0.0 0
M  V30 25 C -1.8338 1.2866 0.0 0
M  V30 26 C -1.624 -2.5536 0.0 0
M  V30 27 C -3.8412 -0.9427 0.0 0
M  V30 28 C -3.301 1.5985 0.0 0
M  V30 29 C -4.3047 0.4838 0.0 0
M  V30 30 C -5.7719 0.7957 0.0 0
M  V30 31 C -6.7756 -0.319 0.0 0
M  V30 32 C -8.2428 -0.0071 0.0 0
M  V30 33 O -8.7064 1.4194 0.0 0
M  V30 34 O -9.2465 -1.1218 0.0 0
M  V30 END ATOM
M  V30 BEGIN BOND
M  V30 1 1 1 2
M  V30 2 1 2 3
M  V30 3 1 2 4
M  V30 4 1 2 5
M  V30 5 2 5 6
M  V30 6 1 5 7
M  V30 7 1 6 8
M  V30 8 2 7 9
M  V30 9 1 7 10
M  V30 10 1 9 11
M  V30 11 2 10 12
M  V30 12 2 11 13
M  V30 13 1 11 14
M  V30 14 1 13 15
M  V30 15 1 14 16
M  V30 16 1 15 17
M  V30 17 1 16 18
M  V30 18 1 17 19
M  V30 19 1 19 20
M  V30 20 1 20 21
M  V30 21 1 21 22
M  V30 22 1 21 23
M  V30 23 2 22 24
M  V30 24 1 22 25
M  V30 25 2 23 26
M  V30 26 1 24 27
M  V30 27 2 25 28
M  V30 28 2 27 29
M  V30 29 1 29 30
M  V30 30 1 30 31
M  V30 31 1 31 32
M  V30 32 2 32 33
M  V30 33 1 32 34
M  V30 34 1 8 9
M  V30 35 1 12 13
M  V30 36 1 24 26
M  V30 37 1 28 29
M  V30 END BOND
M  V30 END CTAB
M  END
>  <Molecule ChEMBL ID>
CHEMBL207907

>  <Smiles>
CCCc1c(OCCCn2ccc3cc(CCC(=O)O)ccc32)ccc2c(C(F)(F)F)noc12

>  <IC50_nM>
1200

>  <Assay Description>
Inhibition of PPAR gamma

$$$$
CHEMBL396696
Actelion Java MolfileCreator 2.0

  0  0  0  0  0  0              0 V3000
M  V30 BEGIN CTAB
M  V30 COUNTS 38 42 0 0 0
M  V30 BEGIN ATOM
M  V30 1 O 5.1961 2.25 0.0 0
M  V30 2 C 3.8971 1.5 0.0 0
M  V30 3 O 2.598 2.25 0.0 0
M  V30 4 C 3.8971 0.0 0.0 0
M  V30 5 N 2.598 -0.75 0.0 0
M  V30 6 C 2.598 -2.25 0.0 0
M  V30 7 C 1.299 0.0 0.0 0
M  V30 8 C 3.8971 -3.0 0.0 0
M  V30 9 C 0.0 -0.75 0.0 0
M  V30 10 C 5.1961 -2.2499 0.0 0
M  V30 11 C 3.8971 -4.5 0.0 0
M  V30 12 C -1.299 0.0 0.0 0
M  V30 13 C 0.0 -2.25 0.0 0
M  V30 14 C 6.4951 -2.9999 0.0 0
M  V30 15 C 5.1961 -5.25 0.0 0
M  V30 16 C -2.598 -0.7499 0.0 0
M  V30 17 C -1.299 -2.9999 0.0 0
M  V30 18 C 6.4951 -4.5 0.0 0
M  V30 19 C 7.7942 -2.2499 0.0 0
M  V30 20 C -2.598 -2.2499 0.0 0
M  V30 21 C 7.7942 -5.25 0.0 0
M  V30 22 C 9.0932 -2.9999 0.0 0
M  V30 23 O -3.8971 -2.9999 0.0 0
M  V30 24 C 9.0932 -4.4999 0.0 0
M  V30 25 C -3.8971 -4.4999 0.0 0
M  V30 26 C -5.1961 -5.2499 0.0 0
M  V30 27 C -5.1961 -6.7499 0.0 0
M  V30 28 N -6.4096 -7.6316 0.0 0
M  V30 29 C -3.9826 -7.6316 0.0 0
M  V30 30 C -5.9461 -9.0582 0.0 0
M  V30 31 O -4.4461 -9.0582 0.0 0
M  V30 32 C -2.556 -7.1681 0.0 0
M  V30 33 C -6.8278 -10.2717 0.0 0
M  V30 34 C -8.3196 -10.1149 0.0 0
M  V30 35 C -6.2177 -11.6421 0.0 0
M  V30 36 C -9.2012 -11.3285 0.0 0
M  V30 37 C -7.0994 -12.8556 0.0 0
M  V30 38 C -8.5911 -12.6988 0.0 0
M  V30 END ATOM
M  V30 BEGIN BOND
M  V30 1 2 1 2
M  V30 2 1 2 3
M  V30 3 1 2 4
M  V30 4 1 4 5
M  V30 5 1 5 6
M  V30 6 1 5 7
M  V30 7 1 6 8
M  V30 8 1 7 9
M  V30 9 2 8 10
M  V30 10 1 8 11
M  V30 11 2 9 12
M  V30 12 1 9 13
M  V30 13 1 10 14
M  V30 14 2 11 15
M  V30 15 1 12 16
M  V30 16 2 13 17
M  V30 17 1 14 18
M  V30 18 2 14 19
M  V30 19 2 16 20
M  V30 20 2 18 21
M  V30 21 1 19 22
M  V30 22 1 20 23
M  V30 23 1 21 24
M  V30 24 1 23 25
M  V30 25 1 25 26
M  V30 26 1 26 27
M  V30 27 1 27 28
M  V30 28 2 27 29
M  V30 29 2 28 30
M  V30 30 1 29 31
M  V30 31 1 29 32
M  V30 32 1 30 33
M  V30 33 2 33 34
M  V30 34 1 33 35
M  V30 35 1 34 36
M  V30 36 2 35 37
M  V30 37 2 36 38
M  V30 38 1 15 18
M  V30 39 1 17 20
M  V30 40 2 22 24
M  V30 41 1 30 31
M  V30 42 1 37 38
M  V30 END BOND
M  V30 END CTAB
M  END
>  <Molecule ChEMBL ID>
CHEMBL396696

>  <Smiles>
Cc1oc(-c2ccccc2)nc1CCOc1ccc(CN(CC(=O)O)Cc2ccc3ccccc3c2)cc1

>  <IC50_nM>
1210

>  <Assay Description>
Displacement of fluorescein labeled ligand from PPARgamma receptor by fluorescence polarization assay

$$$$
CHEMBL190665
Actelion Java MolfileCreator 2.0

  0  0  0  0  0  0              0 V3000
M  V30 BEGIN CTAB
M  V30 COUNTS 23 23 0 0 0
M  V30 BEGIN ATOM
M  V30 1 O 5.1961 -0.75 0.0 0
M  V30 2 C 3.8971 0.0 0.0 0
M  V30 3 O 3.8971 1.5 0.0 0
M  V30 4 C 2.598 -0.75 0.0 0
M  V30 5 O 1.299 0.0 0.0 0
M  V30 6 C 1.848 -2.049 0.0 0
M  V30 7 C 3.348 -2.049 0.0 0
M  V30 8 C 0.0 -0.75 0.0 0
M  V30 9 C -1.299 0.0 0.0 0
M  V30 10 C 0.0 -2.25 0.0 0
M  V30 11 C -2.598 -0.75 0.0 0
M  V30 12 C -1.299 1.5 0.0 0
M  V30 13 C -1.299 -3.0 0.0 0
M  V30 14 C 1.299 -3.0 0.0 0
M  V30 15 C -2.598 -2.25 0.0 0
M  V30 16 C 0.0 2.25 0.0 0
M  V30 17 C 1.299 -4.5 0.0 0
M  V30 18 C -3.8971 -3.0 0.0 0
M  V30 19 C 0.0 3.75 0.0 0
M  V30 20 C 2.598 -5.25 0.0 0
M  V30 21 O -3.8971 -4.5 0.0 0
M  V30 22 C -5.1961 -2.25 0.0 0
M  V30 23 C -6.4952 -3.0 0.0 0
M  V30 END ATOM
M  V30 BEGIN BOND
M  V30 1 2 1 2
M  V30 2 1 2 3
M  V30 3 1 2 4
M  V30 4 1 4 5
M  V30 5 1 4 6
M  V30 6 1 4 7
M  V30 7 1 5 8
M  V30 8 2 8 9
M  V30 9 1 8 10
M  V30 10 1 9 11
M  V30 11 1 9 12
M  V30 12 2 10 13
M  V30 13 1 10 14
M  V30 14 2 11 15
M  V30 15 1 12 16
M  V30 16 1 14 17
M  V30 17 1 15 18
M  V30 18 1 16 19
M  V30 19 1 17 20
M  V30 20 2 18 21
M  V30 21 1 18 22
M  V30 22 1 22 23
M  V30 23 1 13 15
M  V30 END BOND
M  V30 END CTAB
M  END
>  <Molecule ChEMBL ID>
CHEMBL190665

>  <Smiles>
CCCc1cc(C(=O)CC)cc(CCC)c1OC(C)(C)C(=O)O

>  <IC50_nM>
1220

>  <Assay Description>
Inhibition of human Peroxisome proliferator activated receptor gamma binding

$$$$
CHEMBL3736374
Actelion Java MolfileCreator 2.0

  0  0  0  0  0  0              0 V3000
M  V30 BEGIN CTAB
M  V30 COUNTS 44 48 0 0 0
M  V30 BEGIN ATOM
M  V30 1 O 13.5913 -3.5669 0.0 0
M  V30 2 C 12.6131 -3.7748 0.0 0
M  V30 3 O 11.944 -3.0316 0.0 0
M  V30 4 C 12.3041 -4.7258 0.0 0
M  V30 5 C 11.326 -4.9337 0.0 0
M  V30 6 C 12.9732 -5.469 0.0 0
M  V30 7 C 10.6568 -4.1906 0.0 0
M  V30 8 C 11.017 -5.8848 0.0 0
M  V30 9 C 12.6642 -6.42 0.0 0
M  V30 10 C 10.9659 -3.2395 0.0 0
M  V30 11 C 9.6787 -4.3985 0.0 0
M  V30 12 C 11.6861 -6.6279 0.0 0
M  V30 13 C 10.2967 -2.4964 0.0 0
M  V30 14 C 9.0096 -3.6554 0.0 0
M  V30 15 C 9.3186 -2.7043 0.0 0
M  V30 16 C 8.6494 -1.9612 0.0 0
M  V30 17 N 7.6713 -2.1691 0.0 0
M  V30 18 C 6.9282 -1.4999 0.0 0
M  V30 19 C 7.2646 -3.0826 0.0 0
M  V30 20 C 6.0621 -2.0 0.0 0
M  V30 21 C 6.9282 -0.5 0.0 0
M  V30 22 C 6.27 -2.9781 0.0 0
M  V30 23 C 7.7646 -3.9487 0.0 0
M  V30 24 C 5.1961 -1.5 0.0 0
M  V30 25 C 6.0621 0.0 0.0 0
M  V30 26 C 5.6009 -3.7212 0.0 0
M  V30 27 C 5.1961 -0.5 0.0 0
M  V30 28 C 4.3301 0.0 0.0 0
M  V30 29 O 4.3301 1.0 0.0 0
M  V30 30 N 3.4641 -0.5 0.0 0
M  V30 31 C 2.598 0.0 0.0 0 CFG=2
M  V30 32 C 2.598 1.0 0.0 0
M  V30 33 C 1.732 -0.5 0.0 0
M  V30 34 C 3.4641 1.5 0.0 0
M  V30 35 C 1.732 1.4999 0.0 0
M  V30 36 C 0.866 0.0 0.0 0
M  V30 37 C 3.4641 2.5 0.0 0
M  V30 38 C 1.732 2.5 0.0 0
M  V30 39 C 0.866 1.0 0.0 0
M  V30 40 C 0.0 -0.5 0.0 0
M  V30 41 C 2.598 3.0 0.0 0
M  V30 42 C 4.3301 3.0 0.0 0
M  V30 43 C 5.1961 2.5 0.0 0
M  V30 44 C 4.3301 4.0 0.0 0
M  V30 END ATOM
M  V30 BEGIN BOND
M  V30 1 2 1 2
M  V30 2 1 2 3
M  V30 3 1 2 4
M  V30 4 2 4 5
M  V30 5 1 4 6
M  V30 6 1 5 7
M  V30 7 1 5 8
M  V30 8 2 6 9
M  V30 9 2 7 10
M  V30 10 1 7 11
M  V30 11 2 8 12
M  V30 12 1 10 13
M  V30 13 2 11 14
M  V30 14 2 13 15
M  V30 15 1 15 16
M  V30 16 1 16 17
M  V30 17 1 17 18
M  V30 18 1 17 19
M  V30 19 2 18 20
M  V30 20 1 18 21
M  V30 21 2 19 22
M  V30 22 1 19 23
M  V30 23 1 20 24
M  V30 24 2 21 25
M  V30 25 1 22 26
M  V30 26 2 24 27
M  V30 27 1 27 28
M  V30 28 2 28 29
M  V30 29 1 28 30
M  V30 30 1 31 30 CFG=1
M  V30 31 1 31 32
M  V30 32 1 31 33
M  V30 33 2 32 34
M  V30 34 1 32 35
M  V30 35 1 33 36
M  V30 36 1 34 37
M  V30 37 2 35 38
M  V30 38 1 36 39
M  V30 39 1 36 40
M  V30 40 2 37 41
M  V30 41 1 37 42
M  V30 42 1 42 43
M  V30 43 1 42 44
M  V30 44 1 9 12
M  V30 45 1 14 15
M  V30 46 1 20 22
M  V30 47 1 25 27
M  V30 48 1 38 41
M  V30 END BOND
M  V30 BEGIN COLLECTION
M  V30 MDLV30/STEABS ATOMS=(1 31)
M  V30 END COLLECTION
M  V30 END CTAB
M  END
>  <Molecule ChEMBL ID>
CHEMBL3736374

>  <Smiles>
Cc1c(C)n(Cc2ccc(-c3ccccc3C(=O)O)cc2)c2ccc(C(=O)N[C@@H](CC(C)C)c3cccc(C(C)C)c3)cc12

>  <IC50_nM>
1222

>  <Assay Description>
Binding affinity to GST-tagged PPAR-gamma-LBD (unknown origin) after 2 hrs by Lantha screen assay using fluormone Pan-PPAR green probe

$$$$
CHEMBL3695878
Actelion Java MolfileCreator 2.0

  0  0  0  0  0  0              0 V3000
M  V30 BEGIN CTAB
M  V30 COUNTS 41 45 0 0 0
M  V30 BEGIN ATOM
M  V30 1 O 5.1961 -0.5 0.0 0
M  V30 2 C 4.3301 0.0 0.0 0
M  V30 3 N 3.4641 -0.5 0.0 0
M  V30 4 C 4.3301 1.0 0.0 0
M  V30 5 C 3.4641 -1.4999 0.0 0 CFG=2
M  V30 6 C 3.4641 1.5 0.0 0
M  V30 7 C 5.1961 1.4999 0.0 0
M  V30 8 C 4.3301 -2.0 0.0 0
M  V30 9 C 2.598 -1.9999 0.0 0
M  V30 10 C 3.4641 2.5 0.0 0
M  V30 11 C 5.1961 2.4999 0.0 0
M  V30 12 C 5.1961 -1.5 0.0 0
M  V30 13 C 4.3301 -2.9999 0.0 0
M  V30 14 C 1.732 -1.4999 0.0 0
M  V30 15 C 4.3301 3.0 0.0 0
M  V30 16 C 2.7209 3.1691 0.0 0
M  V30 17 C 6.0621 -2.0 0.0 0
M  V30 18 C 5.1961 -3.5 0.0 0
M  V30 19 C 1.732 -0.5 0.0 0
M  V30 20 C 0.866 -2.0 0.0 0
M  V30 21 N 4.1222 3.9781 0.0 0
M  V30 22 C 3.1276 4.0826 0.0 0
M  V30 23 C 1.7428 2.9612 0.0 0
M  V30 24 C 6.0621 -3.0 0.0 0
M  V30 25 C 6.9282 -1.5 0.0 0
M  V30 26 C 4.7913 4.7212 0.0 0
M  V30 27 C 2.6276 4.9487 0.0 0
M  V30 28 C 6.9282 -0.5 0.0 0
M  V30 29 C 7.7942 -2.0 0.0 0
M  V30 30 C 4.4823 5.6723 0.0 0
M  V30 31 C 5.1514 6.4154 0.0 0
M  V30 32 C 3.5041 5.8802 0.0 0
M  V30 33 C 4.8424 7.3665 0.0 0
M  V30 34 C 3.1951 6.8313 0.0 0
M  V30 35 C 3.8642 7.5744 0.0 0
M  V30 36 C 3.5552 8.5255 0.0 0
M  V30 37 C 4.2244 9.2686 0.0 0
M  V30 38 C 2.5771 8.7334 0.0 0
M  V30 39 C 3.9153 10.2197 0.0 0
M  V30 40 C 2.2681 9.6844 0.0 0
M  V30 41 C 2.9372 10.4276 0.0 0
M  V30 END ATOM
M  V30 BEGIN BOND
M  V30 1 2 1 2
M  V30 2 1 2 3
M  V30 3 1 2 4
M  V30 4 1 5 3 CFG=3
M  V30 5 2 4 6
M  V30 6 1 4 7
M  V30 7 1 5 8
M  V30 8 1 5 9
M  V30 9 1 6 10
M  V30 10 2 7 11
M  V30 11 2 8 12
M  V30 12 1 8 13
M  V30 13 1 9 14
M  V30 14 2 10 15
M  V30 15 1 10 16
M  V30 16 1 12 17
M  V30 17 2 13 18
M  V30 18 1 14 19
M  V30 19 1 14 20
M  V30 20 1 15 21
M  V30 21 2 16 22
M  V30 22 1 16 23
M  V30 23 2 17 24
M  V30 24 1 17 25
M  V30 25 1 21 26
M  V30 26 1 22 27
M  V30 27 1 25 28
M  V30 28 1 25 29
M  V30 29 1 26 30
M  V30 30 2 30 31
M  V30 31 1 30 32
M  V30 32 1 31 33
M  V30 33 2 32 34
M  V30 34 2 33 35
M  V30 35 1 35 36
M  V30 36 2 36 37
M  V30 37 1 36 38
M  V30 38 1 37 39
M  V30 39 2 38 40
M  V30 40 2 39 41
M  V30 41 1 11 15
M  V30 42 1 18 24
M  V30 43 1 21 22
M  V30 44 1 34 35
M  V30 45 1 40 41
M  V30 END BOND
M  V30 BEGIN COLLECTION
M  V30 MDLV30/STEABS ATOMS=(1 5)
M  V30 END COLLECTION
M  V30 END CTAB
M  END
>  <Molecule ChEMBL ID>
CHEMBL3695878

>  <Smiles>
Cc1c(C)n(Cc2ccc(-c3ccccc3)cc2)c2ccc(C(=O)N[C@@H](CC(C)C)c3cccc(C(C)C)c3)cc12

>  <IC50_nM>
1222

>  <Assay Description>
Lanthascreen Competitive Binding Assay: The assay was performed according to manufacturer protocol. A mixture of nM GST-PPARG-LBD, 5 nM Tb-GST-antibody, 5 nM Fluormone Pan-PPAR Green, and serial dilutions of the experimental compound, beginning at 10 ׬M downwards, was added to wells of black 384-well low-volume plates (Greiner) to a total volume of 18 ׬L. All dilutions were made in TR-FRET assay buffer C. DMSO at 2% final concentration was used as a no-ligand control. Experiment was performed in triplicate, and incubated for 2 hours in the dark prior to assay read in Perkin Elmer ViewLux ultra HTS microplate reader. FRET signal was measured by excitation at 340 nm and emission at 520 nm for fluorescein and 490 nm for terbium. Fold change over DMSO was calculated using GraphPad Prism Software (La Jolla, Calif.) by calculating 520 nm/490 nm ratio. Graphs were plotted as fold change of FRET signal for compound treatment over DMSO-only control.

$$$$
CHEMBL203621
Actelion Java MolfileCreator 2.0

  0  0  0  0  0  0              0 V3000
M  V30 BEGIN CTAB
M  V30 COUNTS 34 36 0 0 0
M  V30 BEGIN ATOM
M  V30 1 Cl 9.0932 1.5 0.0 0
M  V30 2 C 9.0932 0.0 0.0 0
M  V30 3 C 7.7942 -0.75 0.0 0
M  V30 4 C 10.3923 -0.7499 0.0 0
M  V30 5 O 6.4951 0.0 0.0 0
M  V30 6 C 7.7942 -2.25 0.0 0
M  V30 7 C 10.3923 -2.2499 0.0 0
M  V30 8 C 5.1961 -0.75 0.0 0
M  V30 9 C 9.0932 -2.9999 0.0 0
M  V30 10 O 11.6913 -2.9999 0.0 0
M  V30 11 C 3.8971 0.0 0.0 0
M  V30 12 C 12.9903 -2.2499 0.0 0
M  V30 13 C 2.598 -0.75 0.0 0
M  V30 14 C 14.2894 -2.9999 0.0 0
M  V30 15 C 12.9903 -0.7499 0.0 0
M  V30 16 O 1.299 0.0 0.0 0
M  V30 17 C 15.5884 -2.25 0.0 0
M  V30 18 C 14.2894 0.0 0.0 0
M  V30 19 C 0.0 -0.75 0.0 0
M  V30 20 C 15.5884 -0.75 0.0 0
M  V30 21 C -1.299 0.0 0.0 0
M  V30 22 C 0.0 -2.25 0.0 0
M  V30 23 F 16.8874 0.0 0.0 0
M  V30 24 C -2.598 -0.7499 0.0 0
M  V30 25 C -1.299 -2.9999 0.0 0
M  V30 26 C -2.598 -2.2499 0.0 0
M  V30 27 C -3.8971 -2.9999 0.0 0
M  V30 28 C -3.8971 -4.4999 0.0 0 CFG=1
M  V30 29 C -2.598 -5.2499 0.0 0
M  V30 30 C -5.1961 -5.2499 0.0 0
M  V30 31 C -2.598 -3.7499 0.0 0
M  V30 32 O -1.299 -4.5 0.0 0
M  V30 33 O -2.598 -6.7499 0.0 0
M  V30 34 C -5.1961 -6.7499 0.0 0
M  V30 END ATOM
M  V30 BEGIN BOND
M  V30 1 1 1 2
M  V30 2 2 2 3
M  V30 3 1 2 4
M  V30 4 1 3 5
M  V30 5 1 3 6
M  V30 6 2 4 7
M  V30 7 1 5 8
M  V30 8 2 6 9
M  V30 9 1 7 10
M  V30 10 1 8 11
M  V30 11 1 10 12
M  V30 12 1 11 13
M  V30 13 2 12 14
M  V30 14 1 12 15
M  V30 15 1 13 16
M  V30 16 1 14 17
M  V30 17 2 15 18
M  V30 18 1 16 19
M  V30 19 2 17 20
M  V30 20 2 19 21
M  V30 21 1 19 22
M  V30 22 1 20 23
M  V30 23 1 21 24
M  V30 24 2 22 25
M  V30 25 2 24 26
M  V30 26 1 26 27
M  V30 27 1 27 28
M  V30 28 1 28 29
M  V30 29 1 28 30
M  V30 30 1 28 31 CFG=3
M  V30 31 2 29 32
M  V30 32 1 29 33
M  V30 33 1 30 34
M  V30 34 1 7 9
M  V30 35 1 18 20
M  V30 36 1 25 26
M  V30 END BOND
M  V30 BEGIN COLLECTION
M  V30 MDLV30/STERAC1 ATOMS=(1 28)
M  V30 END COLLECTION
M  V30 END CTAB
M  END
>  <Molecule ChEMBL ID>
CHEMBL203621

>  <Smiles>
CCC(C)(Cc1ccc(OCCCOc2ccc(Oc3ccc(F)cc3)cc2Cl)cc1)C(=O)O

>  <IC50_nM>
1240

>  <Assay Description>
Binding affinity to human PPAR gamma

$$$$
CHEMBL495905
Actelion Java MolfileCreator 2.0

  0  0  0  0  0  0              0 V3000
M  V30 BEGIN CTAB
M  V30 COUNTS 32 35 0 0 0
M  V30 BEGIN ATOM
M  V30 1 Br 10.0499 8.0421 0.0 0
M  V30 2 C 8.5827 7.7302 0.0 0
M  V30 3 C 8.1192 6.3036 0.0 0
M  V30 4 C 7.579 8.8449 0.0 0
M  V30 5 C 6.6519 5.9917 0.0 0
M  V30 6 C 8.8692 5.0046 0.0 0
M  V30 7 C 6.1118 8.533 0.0 0
M  V30 8 N 6.4951 4.5 0.0 0
M  V30 9 C 5.6482 7.1065 0.0 0
M  V30 10 C 7.8655 3.8898 0.0 0
M  V30 11 S 5.1961 3.75 0.0 0
M  V30 12 O 4.4461 5.049 0.0 0
M  V30 13 O 3.6961 3.7499 0.0 0
M  V30 14 C 5.1961 2.25 0.0 0
M  V30 15 C 3.8971 1.5 0.0 0
M  V30 16 C 6.4951 1.5 0.0 0
M  V30 17 C 3.8971 0.0 0.0 0
M  V30 18 C 6.4951 0.0 0.0 0
M  V30 19 C 2.598 -0.75 0.0 0
M  V30 20 C 5.1961 -0.75 0.0 0
M  V30 21 O 2.598 -2.25 0.0 0
M  V30 22 N 1.299 0.0 0.0 0
M  V30 23 C 0.0 -0.75 0.0 0
M  V30 24 C -1.299 0.0 0.0 0
M  V30 25 C 0.0 -2.25 0.0 0
M  V30 26 C -1.299 1.5 0.0 0
M  V30 27 C -2.598 -0.75 0.0 0
M  V30 28 C -1.299 -3.0 0.0 0
M  V30 29 O 0.0 2.25 0.0 0
M  V30 30 O -2.598 2.25 0.0 0
M  V30 31 C -2.598 -2.25 0.0 0
M  V30 32 C -3.8971 -3.0 0.0 0
M  V30 END ATOM
M  V30 BEGIN BOND
M  V30 1 1 1 2
M  V30 2 2 2 3
M  V30 3 1 2 4
M  V30 4 1 3 5
M  V30 5 1 3 6
M  V30 6 2 4 7
M  V30 7 1 5 8
M  V30 8 2 5 9
M  V30 9 2 6 10
M  V30 10 1 8 11
M  V30 11 2 11 12
M  V30 12 2 11 13
M  V30 13 1 11 14
M  V30 14 2 14 15
M  V30 15 1 14 16
M  V30 16 1 15 17
M  V30 17 2 16 18
M  V30 18 1 17 19
M  V30 19 2 17 20
M  V30 20 2 19 21
M  V30 21 1 19 22
M  V30 22 1 22 23
M  V30 23 2 23 24
M  V30 24 1 23 25
M  V30 25 1 24 26
M  V30 26 1 24 27
M  V30 27 2 25 28
M  V30 28 2 26 29
M  V30 29 1 26 30
M  V30 30 2 27 31
M  V30 31 1 31 32
M  V30 32 1 7 9
M  V30 33 1 8 10
M  V30 34 1 18 20
M  V30 35 1 28 31
M  V30 END BOND
M  V30 END CTAB
M  END
>  <Molecule ChEMBL ID>
CHEMBL495905

>  <Smiles>
Cc1ccc(NC(=O)c2cccc(S(=O)(=O)n3ccc4c(Br)cccc43)c2)c(C(=O)O)c1

>  <IC50_nM>
1258.93

>  <Assay Description>
Displacement of radiolabeled ligand from human PPARgamma by competition-binding assay

$$$$
CHEMBL495905
Actelion Java MolfileCreator 2.0

  0  0  0  0  0  0              0 V3000
M  V30 BEGIN CTAB
M  V30 COUNTS 32 35 0 0 0
M  V30 BEGIN ATOM
M  V30 1 Br 10.0499 8.0421 0.0 0
M  V30 2 C 8.5827 7.7302 0.0 0
M  V30 3 C 8.1192 6.3036 0.0 0
M  V30 4 C 7.579 8.8449 0.0 0
M  V30 5 C 6.6519 5.9917 0.0 0
M  V30 6 C 8.8692 5.0046 0.0 0
M  V30 7 C 6.1118 8.533 0.0 0
M  V30 8 N 6.4951 4.5 0.0 0
M  V30 9 C 5.6482 7.1065 0.0 0
M  V30 10 C 7.8655 3.8898 0.0 0
M  V30 11 S 5.1961 3.75 0.0 0
M  V30 12 O 4.4461 5.049 0.0 0
M  V30 13 O 3.6961 3.7499 0.0 0
M  V30 14 C 5.1961 2.25 0.0 0
M  V30 15 C 3.8971 1.5 0.0 0
M  V30 16 C 6.4951 1.5 0.0 0
M  V30 17 C 3.8971 0.0 0.0 0
M  V30 18 C 6.4951 0.0 0.0 0
M  V30 19 C 2.598 -0.75 0.0 0
M  V30 20 C 5.1961 -0.75 0.0 0
M  V30 21 O 2.598 -2.25 0.0 0
M  V30 22 N 1.299 0.0 0.0 0
M  V30 23 C 0.0 -0.75 0.0 0
M  V30 24 C -1.299 0.0 0.0 0
M  V30 25 C 0.0 -2.25 0.0 0
M  V30 26 C -1.299 1.5 0.0 0
M  V30 27 C -2.598 -0.75 0.0 0
M  V30 28 C -1.299 -3.0 0.0 0
M  V30 29 O 0.0 2.25 0.0 0
M  V30 30 O -2.598 2.25 0.0 0
M  V30 31 C -2.598 -2.25 0.0 0
M  V30 32 C -3.8971 -3.0 0.0 0
M  V30 END ATOM
M  V30 BEGIN BOND
M  V30 1 1 1 2
M  V30 2 2 2 3
M  V30 3 1 2 4
M  V30 4 1 3 5
M  V30 5 1 3 6
M  V30 6 2 4 7
M  V30 7 1 5 8
M  V30 8 2 5 9
M  V30 9 2 6 10
M  V30 10 1 8 11
M  V30 11 2 11 12
M  V30 12 2 11 13
M  V30 13 1 11 14
M  V30 14 2 14 15
M  V30 15 1 14 16
M  V30 16 1 15 17
M  V30 17 2 16 18
M  V30 18 1 17 19
M  V30 19 2 17 20
M  V30 20 2 19 21
M  V30 21 1 19 22
M  V30 22 1 22 23
M  V30 23 2 23 24
M  V30 24 1 23 25
M  V30 25 1 24 26
M  V30 26 1 24 27
M  V30 27 2 25 28
M  V30 28 2 26 29
M  V30 29 1 26 30
M  V30 30 2 27 31
M  V30 31 1 31 32
M  V30 32 1 7 9
M  V30 33 1 8 10
M  V30 34 1 18 20
M  V30 35 1 28 31
M  V30 END BOND
M  V30 END CTAB
M  END
>  <Molecule ChEMBL ID>
CHEMBL495905

>  <Smiles>
Cc1ccc(NC(=O)c2cccc(S(=O)(=O)n3ccc4c(Br)cccc43)c2)c(C(=O)O)c1

>  <IC50_nM>
1258.93

>  <Assay Description>
Agonist activity at PPARgamma

$$$$
CHEMBL495905
Actelion Java MolfileCreator 2.0

  0  0  0  0  0  0              0 V3000
M  V30 BEGIN CTAB
M  V30 COUNTS 32 35 0 0 0
M  V30 BEGIN ATOM
M  V30 1 Br 10.0499 8.0421 0.0 0
M  V30 2 C 8.5827 7.7302 0.0 0
M  V30 3 C 8.1192 6.3036 0.0 0
M  V30 4 C 7.579 8.8449 0.0 0
M  V30 5 C 6.6519 5.9917 0.0 0
M  V30 6 C 8.8692 5.0046 0.0 0
M  V30 7 C 6.1118 8.533 0.0 0
M  V30 8 N 6.4951 4.5 0.0 0
M  V30 9 C 5.6482 7.1065 0.0 0
M  V30 10 C 7.8655 3.8898 0.0 0
M  V30 11 S 5.1961 3.75 0.0 0
M  V30 12 O 4.4461 5.049 0.0 0
M  V30 13 O 3.6961 3.7499 0.0 0
M  V30 14 C 5.1961 2.25 0.0 0
M  V30 15 C 3.8971 1.5 0.0 0
M  V30 16 C 6.4951 1.5 0.0 0
M  V30 17 C 3.8971 0.0 0.0 0
M  V30 18 C 6.4951 0.0 0.0 0
M  V30 19 C 2.598 -0.75 0.0 0
M  V30 20 C 5.1961 -0.75 0.0 0
M  V30 21 O 2.598 -2.25 0.0 0
M  V30 22 N 1.299 0.0 0.0 0
M  V30 23 C 0.0 -0.75 0.0 0
M  V30 24 C -1.299 0.0 0.0 0
M  V30 25 C 0.0 -2.25 0.0 0
M  V30 26 C -1.299 1.5 0.0 0
M  V30 27 C -2.598 -0.75 0.0 0
M  V30 28 C -1.299 -3.0 0.0 0
M  V30 29 O 0.0 2.25 0.0 0
M  V30 30 O -2.598 2.25 0.0 0
M  V30 31 C -2.598 -2.25 0.0 0
M  V30 32 C -3.8971 -3.0 0.0 0
M  V30 END ATOM
M  V30 BEGIN BOND
M  V30 1 1 1 2
M  V30 2 2 2 3
M  V30 3 1 2 4
M  V30 4 1 3 5
M  V30 5 1 3 6
M  V30 6 2 4 7
M  V30 7 1 5 8
M  V30 8 2 5 9
M  V30 9 2 6 10
M  V30 10 1 8 11
M  V30 11 2 11 12
M  V30 12 2 11 13
M  V30 13 1 11 14
M  V30 14 2 14 15
M  V30 15 1 14 16
M  V30 16 1 15 17
M  V30 17 2 16 18
M  V30 18 1 17 19
M  V30 19 2 17 20
M  V30 20 2 19 21
M  V30 21 1 19 22
M  V30 22 1 22 23
M  V30 23 2 23 24
M  V30 24 1 23 25
M  V30 25 1 24 26
M  V30 26 1 24 27
M  V30 27 2 25 28
M  V30 28 2 26 29
M  V30 29 1 26 30
M  V30 30 2 27 31
M  V30 31 1 31 32
M  V30 32 1 7 9
M  V30 33 1 8 10
M  V30 34 1 18 20
M  V30 35 1 28 31
M  V30 END BOND
M  V30 END CTAB
M  END
>  <Molecule ChEMBL ID>
CHEMBL495905

>  <Smiles>
Cc1ccc(NC(=O)c2cccc(S(=O)(=O)n3ccc4c(Br)cccc43)c2)c(C(=O)O)c1

>  <IC50_nM>
1259

>  <Assay Description>
Agonist activity at PPARgamma

$$$$
CHEMBL411423
Actelion Java MolfileCreator 2.0

  0  0  0  0  0  0              0 V3000
M  V30 BEGIN CTAB
M  V30 COUNTS 36 39 0 0 0
M  V30 BEGIN ATOM
M  V30 1 F 9.1393 -2.451 0.0 0
M  V30 2 C 8.1882 -2.76 0.0 0
M  V30 3 F 8.4972 -3.7111 0.0 0
M  V30 4 F 7.2372 -3.069 0.0 0
M  V30 5 C 7.8792 -1.809 0.0 0
M  V30 6 N 8.467 -1.0 0.0 0
M  V30 7 C 6.9282 -1.5 0.0 0
M  V30 8 O 7.8792 -0.1909 0.0 0
M  V30 9 C 6.9282 -0.5 0.0 0
M  V30 10 C 6.0621 -2.0 0.0 0
M  V30 11 C 6.0621 0.0 0.0 0
M  V30 12 C 5.1961 -1.4999 0.0 0
M  V30 13 C 5.1961 -0.5 0.0 0
M  V30 14 C 6.0621 0.9999 0.0 0
M  V30 15 O 4.3301 0.0 0.0 0
M  V30 16 C 6.9282 1.4999 0.0 0
M  V30 17 C 3.4641 -0.5 0.0 0
M  V30 18 C 6.9282 2.4999 0.0 0
M  V30 19 C 2.598 0.0 0.0 0
M  V30 20 C 1.732 -0.5 0.0 0
M  V30 21 O 0.866 0.0 0.0 0
M  V30 22 C 0.0 -0.5 0.0 0
M  V30 23 C 0.0 -1.5 0.0 0
M  V30 24 C -0.866 0.0 0.0 0
M  V30 25 C -0.866 -1.9999 0.0 0
M  V30 26 C 0.7431 -2.1691 0.0 0
M  V30 27 C -1.732 -0.4999 0.0 0
M  V30 28 N -0.6581 -2.9781 0.0 0
M  V30 29 C -1.732 -1.4999 0.0 0
M  V30 30 C 0.3364 -3.0826 0.0 0
M  V30 31 C -1.3272 -3.7212 0.0 0 CFG=2
M  V30 32 C -2.3053 -3.5133 0.0 0
M  V30 33 C -1.0182 -4.6723 0.0 0
M  V30 34 O -2.6144 -2.5623 0.0 0
M  V30 35 O -2.9745 -4.2565 0.0 0
M  V30 36 C -0.04 -4.8802 0.0 0
M  V30 END ATOM
M  V30 BEGIN BOND
M  V30 1 1 1 2
M  V30 2 1 2 3
M  V30 3 1 2 4
M  V30 4 1 2 5
M  V30 5 2 5 6
M  V30 6 1 5 7
M  V30 7 1 6 8
M  V30 8 2 7 9
M  V30 9 1 7 10
M  V30 10 1 9 11
M  V30 11 2 10 12
M  V30 12 2 11 13
M  V30 13 1 11 14
M  V30 14 1 13 15
M  V30 15 1 14 16
M  V30 16 1 15 17
M  V30 17 1 16 18
M  V30 18 1 17 19
M  V30 19 1 19 20
M  V30 20 1 20 21
M  V30 21 1 21 22
M  V30 22 2 22 23
M  V30 23 1 22 24
M  V30 24 1 23 25
M  V30 25 1 23 26
M  V30 26 2 24 27
M  V30 27 1 25 28
M  V30 28 2 25 29
M  V30 29 2 26 30
M  V30 30 1 31 28 CFG=1
M  V30 31 1 31 32
M  V30 32 1 31 33
M  V30 33 2 32 34
M  V30 34 1 32 35
M  V30 35 1 33 36
M  V30 36 1 8 9
M  V30 37 1 12 13
M  V30 38 1 27 29
M  V30 39 1 28 30
M  V30 END BOND
M  V30 BEGIN COLLECTION
M  V30 MDLV30/STERAC1 ATOMS=(1 31)
M  V30 END COLLECTION
M  V30 END CTAB
M  END
>  <Molecule ChEMBL ID>
CHEMBL411423

>  <Smiles>
CCCc1c(OCCCOc2cccc3c2ccn3C(CC)C(=O)O)ccc2c(C(F)(F)F)noc12

>  <IC50_nM>
1282

>  <Assay Description>
Displacement of [3H]rosiglitazone from human PPAR gamma by SPA assay

$$$$
CHEMBL408
Actelion Java MolfileCreator 2.0

  0  0  0  0  0  0              0 V3000
M  V30 BEGIN CTAB
M  V30 COUNTS 31 34 0 0 0
M  V30 BEGIN ATOM
M  V30 1 S 6.1667 0.0054 0.0 0
M  V30 2 C 7.1448 -0.2024 0.0 0
M  V30 3 C 6.0621 1.0 0.0 0
M  V30 4 O 7.5515 -1.1159 0.0 0
M  V30 5 N 7.6448 0.6635 0.0 0
M  V30 6 C 6.9757 1.4067 0.0 0
M  V30 7 C 5.1961 1.5 0.0 0
M  V30 8 O 7.1836 2.3848 0.0 0
M  V30 9 C 4.3301 1.0 0.0 0
M  V30 10 C 3.4641 1.5 0.0 0
M  V30 11 C 4.3301 0.0 0.0 0
M  V30 12 C 2.598 0.9999 0.0 0
M  V30 13 C 3.4641 -0.4999 0.0 0
M  V30 14 C 2.598 0.0 0.0 0
M  V30 15 O 1.732 -0.5 0.0 0
M  V30 16 C 0.866 0.0 0.0 0
M  V30 17 C 0.0 -0.5 0.0 0
M  V30 18 O -0.866 0.0 0.0 0
M  V30 19 C 0.0 -1.4999 0.0 0
M  V30 20 C 0.866 -1.0 0.0 0
M  V30 21 C -1.732 -0.4999 0.0 0
M  V30 22 C -0.866 -1.9999 0.0 0
M  V30 23 C -1.732 -1.4999 0.0 0
M  V30 24 C -2.598 0.0 0.0 0
M  V30 25 C -2.598 -1.9999 0.0 0
M  V30 26 C -3.4641 -0.4999 0.0 0
M  V30 27 C -2.598 1.0 0.0 0
M  V30 28 C -3.4641 -1.4999 0.0 0
M  V30 29 C -2.598 -2.9999 0.0 0
M  V30 30 C -4.3301 0.0 0.0 0
M  V30 31 O -4.3301 -1.9999 0.0 0
M  V30 END ATOM
M  V30 BEGIN BOND
M  V30 1 1 1 2
M  V30 2 1 1 3
M  V30 3 2 2 4
M  V30 4 1 2 5
M  V30 5 1 3 6
M  V30 6 1 3 7
M  V30 7 2 6 8
M  V30 8 1 7 9
M  V30 9 2 9 10
M  V30 10 1 9 11
M  V30 11 1 10 12
M  V30 12 2 11 13
M  V30 13 2 12 14
M  V30 14 1 14 15
M  V30 15 1 15 16
M  V30 16 1 16 17
M  V30 17 1 17 18
M  V30 18 1 17 19
M  V30 19 1 17 20
M  V30 20 1 18 21
M  V30 21 1 19 22
M  V30 22 2 21 23
M  V30 23 1 21 24
M  V30 24 1 23 25
M  V30 25 2 24 26
M  V30 26 1 24 27
M  V30 27 2 25 28
M  V30 28 1 25 29
M  V30 29 1 26 30
M  V30 30 1 28 31
M  V30 31 1 5 6
M  V30 32 1 13 14
M  V30 33 1 22 23
M  V30 34 1 26 28
M  V30 END BOND
M  V30 END CTAB
M  END
>  <Molecule ChEMBL ID>
CHEMBL408

>  <Smiles>
Cc1c(C)c2c(c(C)c1O)CCC(C)(COc1ccc(CC3SC(=O)NC3=O)cc1)O2

>  <IC50_nM>
1285

>  <Assay Description>
Binding affinity at human peroxidase proliferator activated receptor gamma (hPPARgamma)

$$$$
CHEMBL408
Actelion Java MolfileCreator 2.0

  0  0  0  0  0  0              0 V3000
M  V30 BEGIN CTAB
M  V30 COUNTS 31 34 0 0 0
M  V30 BEGIN ATOM
M  V30 1 S 6.1667 0.0054 0.0 0
M  V30 2 C 7.1448 -0.2024 0.0 0
M  V30 3 C 6.0621 1.0 0.0 0
M  V30 4 O 7.5515 -1.1159 0.0 0
M  V30 5 N 7.6448 0.6635 0.0 0
M  V30 6 C 6.9757 1.4067 0.0 0
M  V30 7 C 5.1961 1.5 0.0 0
M  V30 8 O 7.1836 2.3848 0.0 0
M  V30 9 C 4.3301 1.0 0.0 0
M  V30 10 C 3.4641 1.5 0.0 0
M  V30 11 C 4.3301 0.0 0.0 0
M  V30 12 C 2.598 0.9999 0.0 0
M  V30 13 C 3.4641 -0.4999 0.0 0
M  V30 14 C 2.598 0.0 0.0 0
M  V30 15 O 1.732 -0.5 0.0 0
M  V30 16 C 0.866 0.0 0.0 0
M  V30 17 C 0.0 -0.5 0.0 0
M  V30 18 O -0.866 0.0 0.0 0
M  V30 19 C 0.0 -1.4999 0.0 0
M  V30 20 C 0.866 -1.0 0.0 0
M  V30 21 C -1.732 -0.4999 0.0 0
M  V30 22 C -0.866 -1.9999 0.0 0
M  V30 23 C -1.732 -1.4999 0.0 0
M  V30 24 C -2.598 0.0 0.0 0
M  V30 25 C -2.598 -1.9999 0.0 0
M  V30 26 C -3.4641 -0.4999 0.0 0
M  V30 27 C -2.598 1.0 0.0 0
M  V30 28 C -3.4641 -1.4999 0.0 0
M  V30 29 C -2.598 -2.9999 0.0 0
M  V30 30 C -4.3301 0.0 0.0 0
M  V30 31 O -4.3301 -1.9999 0.0 0
M  V30 END ATOM
M  V30 BEGIN BOND
M  V30 1 1 1 2
M  V30 2 1 1 3
M  V30 3 2 2 4
M  V30 4 1 2 5
M  V30 5 1 3 6
M  V30 6 1 3 7
M  V30 7 2 6 8
M  V30 8 1 7 9
M  V30 9 2 9 10
M  V30 10 1 9 11
M  V30 11 1 10 12
M  V30 12 2 11 13
M  V30 13 2 12 14
M  V30 14 1 14 15
M  V30 15 1 15 16
M  V30 16 1 16 17
M  V30 17 1 17 18
M  V30 18 1 17 19
M  V30 19 1 17 20
M  V30 20 1 18 21
M  V30 21 1 19 22
M  V30 22 2 21 23
M  V30 23 1 21 24
M  V30 24 1 23 25
M  V30 25 2 24 26
M  V30 26 1 24 27
M  V30 27 2 25 28
M  V30 28 1 25 29
M  V30 29 1 26 30
M  V30 30 1 28 31
M  V30 31 1 5 6
M  V30 32 1 13 14
M  V30 33 1 22 23
M  V30 34 1 26 28
M  V30 END BOND
M  V30 END CTAB
M  END
>  <Molecule ChEMBL ID>
CHEMBL408

>  <Smiles>
Cc1c(C)c2c(c(C)c1O)CCC(C)(COc1ccc(CC3SC(=O)NC3=O)cc1)O2

>  <IC50_nM>
1285

>  <Assay Description>
Displacement of tritium labeled ligand from human PPARgamma by SPA assay

$$$$
CHEMBL202140
Actelion Java MolfileCreator 2.0

  0  0  0  0  0  0              0 V3000
M  V30 BEGIN CTAB
M  V30 COUNTS 36 39 0 0 0
M  V30 BEGIN ATOM
M  V30 1 F 7.7942 -6.0 0.0 0
M  V30 2 C 7.7942 -5.0 0.0 0
M  V30 3 C 8.6602 -4.5 0.0 0
M  V30 4 C 6.9282 -4.5 0.0 0
M  V30 5 C 8.6602 -3.5 0.0 0
M  V30 6 C 6.9282 -3.5 0.0 0
M  V30 7 C 7.7942 -3.0 0.0 0
M  V30 8 C 7.7942 -2.0 0.0 0
M  V30 9 O 8.6602 -1.5 0.0 0
M  V30 10 C 6.9282 -1.5 0.0 0
M  V30 11 C 6.9282 -0.5 0.0 0
M  V30 12 C 6.0621 -2.0 0.0 0
M  V30 13 C 6.0621 0.0 0.0 0
M  V30 14 C 5.1961 -1.5 0.0 0
M  V30 15 C 5.1961 -0.5 0.0 0
M  V30 16 C 6.0621 0.9999 0.0 0
M  V30 17 O 4.3301 0.0 0.0 0
M  V30 18 C 6.9282 1.4999 0.0 0
M  V30 19 C 3.4641 -0.5 0.0 0
M  V30 20 C 6.9282 2.4999 0.0 0
M  V30 21 C 2.598 0.0 0.0 0
M  V30 22 C 1.732 -0.5 0.0 0
M  V30 23 O 0.866 0.0 0.0 0
M  V30 24 C 0.0 -0.5 0.0 0
M  V30 25 C -0.866 0.0 0.0 0
M  V30 26 C 0.0 -1.5 0.0 0
M  V30 27 C -1.732 -0.4999 0.0 0
M  V30 28 C -0.866 -1.9999 0.0 0
M  V30 29 N -2.6831 -0.1909 0.0 0
M  V30 30 C -1.732 -1.4999 0.0 0
M  V30 31 C -3.2708 -0.9999 0.0 0
M  V30 32 C -2.9921 0.76 0.0 0
M  V30 33 C -2.6831 -1.809 0.0 0
M  V30 34 C -2.3229 1.5032 0.0 0
M  V30 35 O -1.3448 1.2953 0.0 0
M  V30 36 O -2.632 2.4542 0.0 0
M  V30 END ATOM
M  V30 BEGIN BOND
M  V30 1 1 1 2
M  V30 2 2 2 3
M  V30 3 1 2 4
M  V30 4 1 3 5
M  V30 5 2 4 6
M  V30 6 2 5 7
M  V30 7 1 7 8
M  V30 8 2 8 9
M  V30 9 1 8 10
M  V30 10 2 10 11
M  V30 11 1 10 12
M  V30 12 1 11 13
M  V30 13 2 12 14
M  V30 14 2 13 15
M  V30 15 1 13 16
M  V30 16 1 15 17
M  V30 17 1 16 18
M  V30 18 1 17 19
M  V30 19 1 18 20
M  V30 20 1 19 21
M  V30 21 1 21 22
M  V30 22 1 22 23
M  V30 23 1 23 24
M  V30 24 2 24 25
M  V30 25 1 24 26
M  V30 26 1 25 27
M  V30 27 2 26 28
M  V30 28 1 27 29
M  V30 29 2 27 30
M  V30 30 1 29 31
M  V30 31 1 29 32
M  V30 32 1 30 33
M  V30 33 1 32 34
M  V30 34 2 34 35
M  V30 35 1 34 36
M  V30 36 1 6 7
M  V30 37 1 14 15
M  V30 38 1 28 30
M  V30 39 2 31 33
M  V30 END BOND
M  V30 END CTAB
M  END
>  <Molecule ChEMBL ID>
CHEMBL202140

>  <Smiles>
CCCc1cc(C(=O)c2ccc(F)cc2)ccc1OCCCOc1ccc2ccn(CC(=O)O)c2c1

>  <IC50_nM>
1287

>  <Assay Description>
Displacement of [3H]rosiglitazone from human PPAR gamma by SPA assay

$$$$
CHEMBL202140
Actelion Java MolfileCreator 2.0

  0  0  0  0  0  0              0 V3000
M  V30 BEGIN CTAB
M  V30 COUNTS 36 39 0 0 0
M  V30 BEGIN ATOM
M  V30 1 F 7.7942 -6.0 0.0 0
M  V30 2 C 7.7942 -5.0 0.0 0
M  V30 3 C 8.6602 -4.5 0.0 0
M  V30 4 C 6.9282 -4.5 0.0 0
M  V30 5 C 8.6602 -3.5 0.0 0
M  V30 6 C 6.9282 -3.5 0.0 0
M  V30 7 C 7.7942 -3.0 0.0 0
M  V30 8 C 7.7942 -2.0 0.0 0
M  V30 9 O 8.6602 -1.5 0.0 0
M  V30 10 C 6.9282 -1.5 0.0 0
M  V30 11 C 6.9282 -0.5 0.0 0
M  V30 12 C 6.0621 -2.0 0.0 0
M  V30 13 C 6.0621 0.0 0.0 0
M  V30 14 C 5.1961 -1.5 0.0 0
M  V30 15 C 5.1961 -0.5 0.0 0
M  V30 16 C 6.0621 0.9999 0.0 0
M  V30 17 O 4.3301 0.0 0.0 0
M  V30 18 C 6.9282 1.4999 0.0 0
M  V30 19 C 3.4641 -0.5 0.0 0
M  V30 20 C 6.9282 2.4999 0.0 0
M  V30 21 C 2.598 0.0 0.0 0
M  V30 22 C 1.732 -0.5 0.0 0
M  V30 23 O 0.866 0.0 0.0 0
M  V30 24 C 0.0 -0.5 0.0 0
M  V30 25 C -0.866 0.0 0.0 0
M  V30 26 C 0.0 -1.5 0.0 0
M  V30 27 C -1.732 -0.4999 0.0 0
M  V30 28 C -0.866 -1.9999 0.0 0
M  V30 29 N -2.6831 -0.1909 0.0 0
M  V30 30 C -1.732 -1.4999 0.0 0
M  V30 31 C -3.2708 -0.9999 0.0 0
M  V30 32 C -2.9921 0.76 0.0 0
M  V30 33 C -2.6831 -1.809 0.0 0
M  V30 34 C -2.3229 1.5032 0.0 0
M  V30 35 O -1.3448 1.2953 0.0 0
M  V30 36 O -2.632 2.4542 0.0 0
M  V30 END ATOM
M  V30 BEGIN BOND
M  V30 1 1 1 2
M  V30 2 2 2 3
M  V30 3 1 2 4
M  V30 4 1 3 5
M  V30 5 2 4 6
M  V30 6 2 5 7
M  V30 7 1 7 8
M  V30 8 2 8 9
M  V30 9 1 8 10
M  V30 10 2 10 11
M  V30 11 1 10 12
M  V30 12 1 11 13
M  V30 13 2 12 14
M  V30 14 2 13 15
M  V30 15 1 13 16
M  V30 16 1 15 17
M  V30 17 1 16 18
M  V30 18 1 17 19
M  V30 19 1 18 20
M  V30 20 1 19 21
M  V30 21 1 21 22
M  V30 22 1 22 23
M  V30 23 1 23 24
M  V30 24 2 24 25
M  V30 25 1 24 26
M  V30 26 1 25 27
M  V30 27 2 26 28
M  V30 28 1 27 29
M  V30 29 2 27 30
M  V30 30 1 29 31
M  V30 31 1 29 32
M  V30 32 1 30 33
M  V30 33 1 32 34
M  V30 34 2 34 35
M  V30 35 1 34 36
M  V30 36 1 6 7
M  V30 37 1 14 15
M  V30 38 1 28 30
M  V30 39 2 31 33
M  V30 END BOND
M  V30 END CTAB
M  END
>  <Molecule ChEMBL ID>
CHEMBL202140

>  <Smiles>
CCCc1cc(C(=O)c2ccc(F)cc2)ccc1OCCCOc1ccc2ccn(CC(=O)O)c2c1

>  <IC50_nM>
1288.25

>  <Assay Description>
Agonist activity at PPARgamma

$$$$
CHEMBL3986626
Actelion Java MolfileCreator 2.0

  0  0  0  0  0  0              0 V3000
M  V30 BEGIN CTAB
M  V30 COUNTS 32 34 0 0 0
M  V30 BEGIN ATOM
M  V30 1 S 9.0932 0.0 0.0 0
M  V30 2 O 9.8432 1.299 0.0 0
M  V30 3 O 8.3432 1.299 0.0 0
M  V30 4 N 7.7942 -0.75 0.0 0
M  V30 5 C 10.3923 -0.75 0.0 0
M  V30 6 C 6.4951 0.0 0.0 0
M  V30 7 C 10.3923 -2.25 0.0 0
M  V30 8 C 11.6913 0.0 0.0 0
M  V30 9 O 6.4951 1.5 0.0 0
M  V30 10 N 5.1961 -0.75 0.0 0
M  V30 11 C 11.6913 -3.0 0.0 0
M  V30 12 C 12.9903 -0.75 0.0 0
M  V30 13 C 3.8971 0.0 0.0 0
M  V30 14 C 12.9903 -2.25 0.0 0
M  V30 15 C 2.598 -0.75 0.0 0
M  V30 16 N 14.2894 -3.0 0.0 0
M  V30 17 C 1.299 0.0 0.0 0
M  V30 18 C 15.5884 -2.25 0.0 0
M  V30 19 C 0.0 -0.75 0.0 0
M  V30 20 O 15.5884 -0.75 0.0 0
M  V30 21 C 16.8875 -3.0 0.0 0
M  V30 22 N 18.1865 -2.25 0.0 0
M  V30 23 C 19.4855 -3.0 0.0 0
M  V30 24 C 18.1865 -0.75 0.0 0
M  V30 25 C 20.7846 -2.25 0.0 0
M  V30 26 C 19.4855 -4.5 0.0 0
M  V30 27 C 19.4855 0.0 0.0 0
M  V30 28 N 20.7846 -0.75 0.0 0
M  V30 29 C 22.0836 -3.0 0.0 0
M  V30 30 C 20.7846 -5.25 0.0 0
M  V30 31 O 19.4855 1.5 0.0 0
M  V30 32 C 22.0836 -4.5 0.0 0
M  V30 END ATOM
M  V30 BEGIN BOND
M  V30 1 2 1 2
M  V30 2 2 1 3
M  V30 3 1 1 4
M  V30 4 1 1 5
M  V30 5 1 4 6
M  V30 6 2 5 7
M  V30 7 1 5 8
M  V30 8 2 6 9
M  V30 9 1 6 10
M  V30 10 1 7 11
M  V30 11 2 8 12
M  V30 12 1 10 13
M  V30 13 2 11 14
M  V30 14 1 13 15
M  V30 15 1 14 16
M  V30 16 1 15 17
M  V30 17 1 16 18
M  V30 18 1 17 19
M  V30 19 2 18 20
M  V30 20 1 18 21
M  V30 21 1 21 22
M  V30 22 1 22 23
M  V30 23 1 22 24
M  V30 24 2 23 25
M  V30 25 1 23 26
M  V30 26 1 24 27
M  V30 27 1 25 28
M  V30 28 1 25 29
M  V30 29 2 26 30
M  V30 30 2 27 31
M  V30 31 2 29 32
M  V30 32 1 12 14
M  V30 33 1 27 28
M  V30 34 1 30 32
M  V30 END BOND
M  V30 END CTAB
M  END
>  <Molecule ChEMBL ID>
CHEMBL3986626

>  <Smiles>
CCCCNC(=O)NS(=O)(=O)c1ccc(NC(=O)CN2CC(=O)Nc3ccccc32)cc1

>  <IC50_nM>
1293

>  <Assay Description>
Displacement of fluormone-PPARgamma Green from recombinant human N-terminal GST-tagged PPARgamma-LBD by fluorescence polarization assay

$$$$
CHEMBL469941
Actelion Java MolfileCreator 2.0

  0  0  0  0  0  0              0 V3000
M  V30 BEGIN CTAB
M  V30 COUNTS 20 21 0 0 0
M  V30 BEGIN ATOM
M  V30 1 S 3.8971 0.0 0.0 0
M  V30 2 O 4.6471 1.299 0.0 0
M  V30 3 O 3.1471 1.299 0.0 0
M  V30 4 O 5.1961 -0.75 0.0 0
M  V30 5 C 2.598 -0.75 0.0 0
M  V30 6 C 6.4952 0.0 0.0 0
M  V30 7 C 1.299 0.0 0.0 0
M  V30 8 C 7.7942 -0.75 0.0 0
M  V30 9 C 6.4952 1.5 0.0 0
M  V30 10 C 0.0 -0.75 0.0 0
M  V30 11 C 9.0932 0.0 0.0 0
M  V30 12 C 7.7942 2.25 0.0 0
M  V30 13 C -1.299 0.0 0.0 0
M  V30 14 C 0.0 -2.25 0.0 0
M  V30 15 C 9.0932 1.5 0.0 0
M  V30 16 C -2.598 -0.75 0.0 0
M  V30 17 C -1.299 -3.0 0.0 0
M  V30 18 O 10.3923 2.25 0.0 0
M  V30 19 C -2.598 -2.25 0.0 0
M  V30 20 C 10.3923 3.75 0.0 0
M  V30 END ATOM
M  V30 BEGIN BOND
M  V30 1 2 1 2
M  V30 2 2 1 3
M  V30 3 1 1 4
M  V30 4 1 1 5
M  V30 5 1 4 6
M  V30 6 2 5 7
M  V30 7 2 6 8
M  V30 8 1 6 9
M  V30 9 1 7 10
M  V30 10 1 8 11
M  V30 11 2 9 12
M  V30 12 2 10 13
M  V30 13 1 10 14
M  V30 14 2 11 15
M  V30 15 1 13 16
M  V30 16 2 14 17
M  V30 17 1 15 18
M  V30 18 2 16 19
M  V30 19 1 18 20
M  V30 20 1 12 15
M  V30 21 1 17 19
M  V30 END BOND
M  V30 END CTAB
M  END
>  <Molecule ChEMBL ID>
CHEMBL469941

>  <Smiles>
COc1ccc(OS(=O)(=O)/C=C/c2ccccc2)cc1

>  <IC50_nM>
1294

>  <Assay Description>
Displacement of [3H]BRL49653 from PPARgamma ligand binding domain by scintillation proximity assay

$$$$
CHEMBL197738
Actelion Java MolfileCreator 2.0

  0  0  0  0  0  0              0 V3000
M  V30 BEGIN CTAB
M  V30 COUNTS 35 38 0 0 0
M  V30 BEGIN ATOM
M  V30 1 F 9.1393 -2.451 0.0 0
M  V30 2 C 8.1882 -2.76 0.0 0
M  V30 3 F 8.4972 -3.7111 0.0 0
M  V30 4 F 7.2372 -3.069 0.0 0
M  V30 5 C 7.8792 -1.809 0.0 0
M  V30 6 N 8.467 -1.0 0.0 0
M  V30 7 C 6.9282 -1.5 0.0 0
M  V30 8 O 7.8792 -0.1909 0.0 0
M  V30 9 C 6.9282 -0.5 0.0 0
M  V30 10 C 6.0621 -2.0 0.0 0
M  V30 11 C 6.0621 0.0 0.0 0
M  V30 12 C 5.1961 -1.4999 0.0 0
M  V30 13 C 5.1961 -0.5 0.0 0
M  V30 14 C 6.0621 0.9999 0.0 0
M  V30 15 O 4.3301 0.0 0.0 0
M  V30 16 C 6.9282 1.4999 0.0 0
M  V30 17 C 3.4641 -0.5 0.0 0
M  V30 18 C 6.9282 2.4999 0.0 0
M  V30 19 C 2.598 0.0 0.0 0 CFG=2
M  V30 20 C 1.732 -0.5 0.0 0
M  V30 21 C 2.598 1.0 0.0 0
M  V30 22 O 0.866 0.0 0.0 0
M  V30 23 C 0.0 -0.5 0.0 0
M  V30 24 C 0.0 -1.5 0.0 0
M  V30 25 C -0.866 0.0 0.0 0
M  V30 26 C -0.866 -1.9999 0.0 0
M  V30 27 C 0.7431 -2.1691 0.0 0
M  V30 28 C -1.732 -0.4999 0.0 0
M  V30 29 N -0.6581 -2.9781 0.0 0
M  V30 30 C -1.732 -1.4999 0.0 0
M  V30 31 C 0.3364 -3.0826 0.0 0
M  V30 32 C -1.3272 -3.7212 0.0 0
M  V30 33 C -2.3053 -3.5133 0.0 0
M  V30 34 O -2.6144 -2.5623 0.0 0
M  V30 35 O -2.9745 -4.2565 0.0 0
M  V30 END ATOM
M  V30 BEGIN BOND
M  V30 1 1 1 2
M  V30 2 1 2 3
M  V30 3 1 2 4
M  V30 4 1 2 5
M  V30 5 2 5 6
M  V30 6 1 5 7
M  V30 7 1 6 8
M  V30 8 2 7 9
M  V30 9 1 7 10
M  V30 10 1 9 11
M  V30 11 2 10 12
M  V30 12 2 11 13
M  V30 13 1 11 14
M  V30 14 1 13 15
M  V30 15 1 14 16
M  V30 16 1 15 17
M  V30 17 1 16 18
M  V30 18 1 17 19
M  V30 19 1 19 20
M  V30 20 1 19 21 CFG=3
M  V30 21 1 20 22
M  V30 22 1 22 23
M  V30 23 2 23 24
M  V30 24 1 23 25
M  V30 25 1 24 26
M  V30 26 1 24 27
M  V30 27 2 25 28
M  V30 28 1 26 29
M  V30 29 2 26 30
M  V30 30 2 27 31
M  V30 31 1 29 32
M  V30 32 1 32 33
M  V30 33 2 33 34
M  V30 34 1 33 35
M  V30 35 1 8 9
M  V30 36 1 12 13
M  V30 37 1 28 30
M  V30 38 1 29 31
M  V30 END BOND
M  V30 BEGIN COLLECTION
M  V30 MDLV30/STERAC1 ATOMS=(1 19)
M  V30 END COLLECTION
M  V30 END CTAB
M  END
>  <Molecule ChEMBL ID>
CHEMBL197738

>  <Smiles>
CCCc1c(OCC(C)COc2cccc3c2ccn3CC(=O)O)ccc2c(C(F)(F)F)noc12

>  <IC50_nM>
1298

>  <Assay Description>
Displacement of [3H]rosiglitazone from human PPAR gamma by SPA assay

$$$$
CHEMBL3596276
Actelion Java MolfileCreator 2.0

  0  0  0  0  0  0              0 V3000
M  V30 BEGIN CTAB
M  V30 COUNTS 31 35 0 0 0
M  V30 BEGIN ATOM
M  V30 1 Cl -0.866 0.9999 0.0 0
M  V30 2 C 0.0 1.4999 0.0 0
M  V30 3 C 0.866 0.9999 0.0 0
M  V30 4 C 0.0 2.4999 0.0 0
M  V30 5 C 1.732 1.5 0.0 0
M  V30 6 C 0.866 0.0 0.0 0
M  V30 7 C 0.866 3.0 0.0 0
M  V30 8 C 1.732 2.4999 0.0 0
M  V30 9 C 2.598 1.0 0.0 0
M  V30 10 O 1.732 -0.5 0.0 0
M  V30 11 C 0.0 -0.5 0.0 0
M  V30 12 C 3.098 0.1339 0.0 0
M  V30 13 C 3.598 0.9999 0.0 0
M  V30 14 N -0.9135 -0.0932 0.0 0
M  V30 15 N -0.1045 -1.4945 0.0 0
M  V30 16 C -1.5826 -0.8364 0.0 0
M  V30 17 C -1.0826 -1.7024 0.0 0
M  V30 18 C 0.5646 -2.2376 0.0 0
M  V30 19 C -2.5771 -0.7318 0.0 0
M  V30 20 C -1.3916 -2.6534 0.0 0
M  V30 21 C 0.2555 -3.1887 0.0 0
M  V30 22 C -2.9839 0.1816 0.0 0
M  V30 23 C -3.1649 -1.5408 0.0 0
M  V30 24 C -0.7225 -3.3966 0.0 0
M  V30 25 F -2.3961 0.9906 0.0 0
M  V30 26 C -3.9784 0.2861 0.0 0
M  V30 27 C -4.1595 -1.4363 0.0 0
M  V30 28 C -4.5662 -0.5228 0.0 0
M  V30 29 C -5.5607 -0.4182 0.0 0
M  V30 30 O -5.9675 0.4952 0.0 0
M  V30 31 O -6.1485 -1.2273 0.0 0
M  V30 END ATOM
M  V30 BEGIN BOND
M  V30 1 1 1 2
M  V30 2 2 2 3
M  V30 3 1 2 4
M  V30 4 1 3 5
M  V30 5 1 3 6
M  V30 6 2 4 7
M  V30 7 2 5 8
M  V30 8 1 5 9
M  V30 9 2 6 10
M  V30 10 1 6 11
M  V30 11 1 9 12
M  V30 12 1 9 13
M  V30 13 2 11 14
M  V30 14 1 11 15
M  V30 15 1 14 16
M  V30 16 1 15 17
M  V30 17 1 15 18
M  V30 18 1 16 19
M  V30 19 1 17 20
M  V30 20 1 18 21
M  V30 21 2 19 22
M  V30 22 1 19 23
M  V30 23 1 20 24
M  V30 24 1 22 25
M  V30 25 1 22 26
M  V30 26 2 23 27
M  V30 27 2 26 28
M  V30 28 1 28 29
M  V30 29 2 29 30
M  V30 30 1 29 31
M  V30 31 1 7 8
M  V30 32 1 12 13
M  V30 33 2 16 17
M  V30 34 1 21 24
M  V30 35 1 27 28
M  V30 END BOND
M  V30 END CTAB
M  END
>  <Molecule ChEMBL ID>
CHEMBL3596276

>  <Smiles>
O=C(O)c1ccc(-c2nc(C(=O)c3c(Cl)cccc3C3CC3)n3c2CCCC3)c(F)c1

>  <IC50_nM>
1300

>  <Assay Description>
Displacement of fluormone PPARgamma green from GST-tagged human PPARgamma-LBD after 2 hrs by fluorescence polarization assay

$$$$
CHEMBL5186962
Actelion Java MolfileCreator 2.0

  0  0  0  0  0  0              0 V3000
M  V30 BEGIN CTAB
M  V30 COUNTS 29 32 0 0 0
M  V30 BEGIN ATOM
M  V30 1 Cl 1.732 1.4999 0.0 0
M  V30 2 C 2.598 1.0 0.0 0
M  V30 3 C 2.598 0.0 0.0 0
M  V30 4 C 3.4641 1.4999 0.0 0
M  V30 5 C 1.732 -0.5 0.0 0
M  V30 6 C 3.4641 -0.5 0.0 0
M  V30 7 C 4.3301 1.0 0.0 0
M  V30 8 O 1.732 -1.5 0.0 0
M  V30 9 N 0.866 0.0 0.0 0
M  V30 10 C 4.3301 0.0 0.0 0
M  V30 11 C 0.0 -0.5 0.0 0
M  V30 12 N 5.1961 -0.5 0.0 0 CHG=1
M  V30 13 C -0.866 0.0 0.0 0
M  V30 14 C 0.0 -1.5 0.0 0
M  V30 15 O 5.1961 -1.5 0.0 0
M  V30 16 O 6.0621 0.0 0.0 0 CHG=-1
M  V30 17 C -1.732 -0.4999 0.0 0
M  V30 18 C -0.866 -1.9999 0.0 0
M  V30 19 N -2.6831 -0.1909 0.0 0
M  V30 20 C -1.732 -1.4999 0.0 0
M  V30 21 C -3.2708 -0.9999 0.0 0
M  V30 22 O -2.6831 -1.809 0.0 0
M  V30 23 C -4.2708 -0.9999 0.0 0
M  V30 24 C -4.7708 -0.1339 0.0 0
M  V30 25 C -4.7708 -1.866 0.0 0
M  V30 26 C -5.7708 -0.1339 0.0 0
M  V30 27 C -5.7708 -1.866 0.0 0
M  V30 28 C -6.2708 -0.9999 0.0 0
M  V30 29 C -6.2708 0.732 0.0 0
M  V30 END ATOM
M  V30 BEGIN BOND
M  V30 1 1 1 2
M  V30 2 2 2 3
M  V30 3 1 2 4
M  V30 4 1 3 5
M  V30 5 1 3 6
M  V30 6 2 4 7
M  V30 7 2 5 8
M  V30 8 1 5 9
M  V30 9 2 6 10
M  V30 10 1 9 11
M  V30 11 1 10 12
M  V30 12 2 11 13
M  V30 13 1 11 14
M  V30 14 2 12 15
M  V30 15 1 12 16
M  V30 16 1 13 17
M  V30 17 2 14 18
M  V30 18 1 17 19
M  V30 19 2 17 20
M  V30 20 2 19 21
M  V30 21 1 20 22
M  V30 22 1 21 23
M  V30 23 2 23 24
M  V30 24 1 23 25
M  V30 25 1 24 26
M  V30 26 2 25 27
M  V30 27 2 26 28
M  V30 28 1 26 29
M  V30 29 1 7 10
M  V30 30 1 18 20
M  V30 31 1 21 22
M  V30 32 1 27 28
M  V30 END BOND
M  V30 END CTAB
M  END
>  <Molecule ChEMBL ID>
CHEMBL5186962

>  <Smiles>
Cc1cccc(-c2nc3cc(NC(=O)c4cc([N+](=O)[O-])ccc4Cl)ccc3o2)c1

>  <IC50_nM>
1300

>  <Assay Description>
Inverse agonist activity at PPARgamma in human RT112/84-FABP4 cells assessed as reduction in PPARgamma transactivation measured by Nanoluciferase reporter gene assay

$$$$
CHEMBL1090443
Actelion Java MolfileCreator 2.0

  0  0  0  0  0  0              0 V3000
M  V30 BEGIN CTAB
M  V30 COUNTS 28 30 0 0 0
M  V30 BEGIN ATOM
M  V30 1 S 2.8254 -2.1636 0.0 0
M  V30 2 C 3.5686 -1.4945 0.0 0
M  V30 3 S 4.5467 -1.7024 0.0 0
M  V30 4 N 3.4641 -0.5 0.0 0
M  V30 5 C 5.0467 -0.8364 0.0 0
M  V30 6 C 4.3776 -0.0932 0.0 0
M  V30 7 C 2.598 0.0 0.0 0
M  V30 8 C 6.0412 -0.7318 0.0 0
M  V30 9 O 4.5855 0.8848 0.0 0
M  V30 10 C 1.732 -0.5 0.0 0
M  V30 11 C 6.448 0.1816 0.0 0
M  V30 12 C 0.866 0.0 0.0 0
M  V30 13 C 7.4425 0.2861 0.0 0
M  V30 14 C 5.8602 0.9906 0.0 0
M  V30 15 O 0.866 1.0 0.0 0
M  V30 16 O 0.0 -0.5 0.0 0
M  V30 17 O 8.0303 -0.5228 0.0 0
M  V30 18 C 7.8492 1.1997 0.0 0
M  V30 19 C 6.2669 1.9042 0.0 0
M  V30 20 C 7.6236 -1.4363 0.0 0
M  V30 21 C 7.2615 2.0087 0.0 0
M  V30 22 C 8.2113 -2.2453 0.0 0
M  V30 23 C 7.8046 -3.1589 0.0 0
M  V30 24 C 9.2059 -2.1408 0.0 0
M  V30 25 C 8.3924 -3.9679 0.0 0
M  V30 26 C 9.7936 -2.9498 0.0 0
M  V30 27 C 9.3869 -3.8634 0.0 0
M  V30 28 C 9.9747 -4.6724 0.0 0
M  V30 END ATOM
M  V30 BEGIN BOND
M  V30 1 2 1 2
M  V30 2 1 2 3
M  V30 3 1 2 4
M  V30 4 1 3 5
M  V30 5 1 4 6
M  V30 6 1 4 7
M  V30 7 2 5 8
M  V30 8 2 6 9
M  V30 9 1 7 10
M  V30 10 1 8 11
M  V30 11 1 10 12
M  V30 12 2 11 13
M  V30 13 1 11 14
M  V30 14 2 12 15
M  V30 15 1 12 16
M  V30 16 1 13 17
M  V30 17 1 13 18
M  V30 18 2 14 19
M  V30 19 1 17 20
M  V30 20 2 18 21
M  V30 21 1 20 22
M  V30 22 2 22 23
M  V30 23 1 22 24
M  V30 24 1 23 25
M  V30 25 2 24 26
M  V30 26 2 25 27
M  V30 27 1 27 28
M  V30 28 1 5 6
M  V30 29 1 19 21
M  V30 30 1 26 27
M  V30 END BOND
M  V30 END CTAB
M  END
>  <Molecule ChEMBL ID>
CHEMBL1090443

>  <Smiles>
Cc1ccc(COc2ccccc2/C=C2/SC(=S)N(CCC(=O)O)C2=O)cc1

>  <IC50_nM>
1319

>  <Assay Description>
Agonist activity at N-terminal His-tagged human PPARgamma ligand binding domain by fluorescence polarization assay

$$$$
CHEMBL3941555
Actelion Java MolfileCreator 2.0

  0  0  0  0  0  0              0 V3000
M  V30 BEGIN CTAB
M  V30 COUNTS 32 34 0 0 0
M  V30 BEGIN ATOM
M  V30 1 S 9.0932 0.0 0.0 0
M  V30 2 O 9.8432 1.299 0.0 0
M  V30 3 O 8.3432 1.299 0.0 0
M  V30 4 N 7.7942 -0.75 0.0 0
M  V30 5 C 10.3923 -0.75 0.0 0
M  V30 6 C 6.4951 0.0 0.0 0
M  V30 7 C 10.3923 -2.25 0.0 0
M  V30 8 C 11.6913 0.0 0.0 0
M  V30 9 O 6.4951 1.5 0.0 0
M  V30 10 N 5.1961 -0.75 0.0 0
M  V30 11 C 11.6913 -3.0 0.0 0
M  V30 12 C 12.9903 -0.75 0.0 0
M  V30 13 C 3.8971 0.0 0.0 0
M  V30 14 C 12.9903 -2.25 0.0 0
M  V30 15 C 2.598 -0.75 0.0 0
M  V30 16 N 14.2894 -3.0 0.0 0
M  V30 17 C 1.299 0.0 0.0 0
M  V30 18 C 15.5884 -2.25 0.0 0
M  V30 19 C 0.0 -0.75 0.0 0
M  V30 20 C 16.8875 -3.0 0.0 0
M  V30 21 O 16.8875 -4.5 0.0 0
M  V30 22 N 18.1865 -2.25 0.0 0
M  V30 23 C 19.4855 -3.0 0.0 0
M  V30 24 C 18.1865 -0.75 0.0 0
M  V30 25 C 20.7846 -2.25 0.0 0
M  V30 26 C 19.4855 -4.5 0.0 0
M  V30 27 C 19.4855 0.0 0.0 0
M  V30 28 N 20.7846 -0.75 0.0 0
M  V30 29 C 22.0836 -3.0 0.0 0
M  V30 30 C 20.7846 -5.25 0.0 0
M  V30 31 O 19.4855 1.5 0.0 0
M  V30 32 C 22.0836 -4.5 0.0 0
M  V30 END ATOM
M  V30 BEGIN BOND
M  V30 1 2 1 2
M  V30 2 2 1 3
M  V30 3 1 1 4
M  V30 4 1 1 5
M  V30 5 1 4 6
M  V30 6 2 5 7
M  V30 7 1 5 8
M  V30 8 2 6 9
M  V30 9 1 6 10
M  V30 10 1 7 11
M  V30 11 2 8 12
M  V30 12 1 10 13
M  V30 13 2 11 14
M  V30 14 1 13 15
M  V30 15 1 14 16
M  V30 16 1 15 17
M  V30 17 1 16 18
M  V30 18 1 17 19
M  V30 19 1 18 20
M  V30 20 2 20 21
M  V30 21 1 20 22
M  V30 22 1 22 23
M  V30 23 1 22 24
M  V30 24 2 23 25
M  V30 25 1 23 26
M  V30 26 1 24 27
M  V30 27 1 25 28
M  V30 28 1 25 29
M  V30 29 2 26 30
M  V30 30 2 27 31
M  V30 31 2 29 32
M  V30 32 1 12 14
M  V30 33 1 27 28
M  V30 34 1 30 32
M  V30 END BOND
M  V30 END CTAB
M  END
>  <Molecule ChEMBL ID>
CHEMBL3941555

>  <Smiles>
CCCCNC(=O)NS(=O)(=O)c1ccc(NCC(=O)N2CC(=O)Nc3ccccc32)cc1

>  <IC50_nM>
1320

>  <Assay Description>
Displacement of fluormone-PPARgamma Green from recombinant human N-terminal GST-tagged PPARgamma-LBD by fluorescence polarization assay

$$$$
CHEMBL443343
Actelion Java MolfileCreator 2.0

  0  0  0  0  0  0              0 V3000
M  V30 BEGIN CTAB
M  V30 COUNTS 18 19 0 0 0
M  V30 BEGIN ATOM
M  V30 1 S 3.8971 0.0 0.0 0
M  V30 2 O 4.6471 1.299 0.0 0
M  V30 3 O 3.1471 1.299 0.0 0
M  V30 4 O 5.1961 -0.75 0.0 0
M  V30 5 C 2.598 -0.75 0.0 0
M  V30 6 C 6.4952 0.0 0.0 0
M  V30 7 C 1.299 0.0 0.0 0
M  V30 8 C 7.7942 -0.75 0.0 0
M  V30 9 C 6.4952 1.5 0.0 0
M  V30 10 C 0.0 -0.75 0.0 0
M  V30 11 C 9.0932 0.0 0.0 0
M  V30 12 C 7.7942 2.25 0.0 0
M  V30 13 C -1.299 0.0 0.0 0
M  V30 14 C 0.0 -2.25 0.0 0
M  V30 15 C 9.0932 1.5 0.0 0
M  V30 16 C -2.598 -0.75 0.0 0
M  V30 17 C -1.299 -3.0 0.0 0
M  V30 18 C -2.598 -2.25 0.0 0
M  V30 END ATOM
M  V30 BEGIN BOND
M  V30 1 2 1 2
M  V30 2 2 1 3
M  V30 3 1 1 4
M  V30 4 1 1 5
M  V30 5 1 4 6
M  V30 6 2 5 7
M  V30 7 2 6 8
M  V30 8 1 6 9
M  V30 9 1 7 10
M  V30 10 1 8 11
M  V30 11 2 9 12
M  V30 12 2 10 13
M  V30 13 1 10 14
M  V30 14 2 11 15
M  V30 15 1 13 16
M  V30 16 2 14 17
M  V30 17 2 16 18
M  V30 18 1 12 15
M  V30 19 1 17 18
M  V30 END BOND
M  V30 END CTAB
M  END
>  <Molecule ChEMBL ID>
CHEMBL443343

>  <Smiles>
O=S(=O)(/C=C/c1ccccc1)Oc1ccccc1

>  <IC50_nM>
1326

>  <Assay Description>
Displacement of [3H]BRL49653 from PPARgamma ligand binding domain by scintillation proximity assay

$$$$
CHEMBL255271
Actelion Java MolfileCreator 2.0

  0  0  0  0  0  0              0 V3000
M  V30 BEGIN CTAB
M  V30 COUNTS 41 45 0 0 0
M  V30 BEGIN ATOM
M  V30 1 F 2.232 1.6339 0.0 0
M  V30 2 C 1.732 2.5 0.0 0
M  V30 3 F 0.866 2.0 0.0 0
M  V30 4 F 1.232 3.366 0.0 0
M  V30 5 C 2.598 3.0 0.0 0
M  V30 6 N 3.4641 2.4999 0.0 0
M  V30 7 C 2.598 3.9999 0.0 0
M  V30 8 C 4.3301 3.0 0.0 0
M  V30 9 C 3.4641 4.5 0.0 0
M  V30 10 N 4.3301 4.0 0.0 0
M  V30 11 N 5.1961 2.4999 0.0 0
M  V30 12 C 5.1961 1.5 0.0 0
M  V30 13 C 6.0621 2.9999 0.0 0
M  V30 14 C 6.0621 1.0 0.0 0
M  V30 15 C 6.9282 2.4999 0.0 0
M  V30 16 C 6.9282 1.5 0.0 0
M  V30 17 C 6.0621 0.0 0.0 0
M  V30 18 C 7.7942 0.9999 0.0 0
M  V30 19 C 5.1961 -0.5 0.0 0
M  V30 20 O 7.7942 0.0 0.0 0
M  V30 21 O 8.6602 1.4999 0.0 0
M  V30 22 C 4.3301 0.0 0.0 0
M  V30 23 C 5.1961 -1.4999 0.0 0
M  V30 24 C 3.4641 -0.5 0.0 0
M  V30 25 C 4.3301 -1.9999 0.0 0
M  V30 26 O 2.598 0.0 0.0 0
M  V30 27 C 3.4641 -1.4999 0.0 0
M  V30 28 C 1.732 -0.5 0.0 0
M  V30 29 C 0.866 0.0 0.0 0
M  V30 30 C 0.0 -0.5 0.0 0
M  V30 31 N -0.9135 -0.0932 0.0 0
M  V30 32 C -0.1045 -1.4945 0.0 0
M  V30 33 C -1.5826 -0.8364 0.0 0
M  V30 34 O -1.0826 -1.7024 0.0 0
M  V30 35 C 0.6386 -2.1636 0.0 0
M  V30 36 C -2.5771 -0.7318 0.0 0
M  V30 37 C -2.9839 0.1816 0.0 0
M  V30 38 C -3.1649 -1.5408 0.0 0
M  V30 39 C -3.9784 0.2861 0.0 0
M  V30 40 C -4.1595 -1.4363 0.0 0
M  V30 41 C -4.5662 -0.5228 0.0 0
M  V30 END ATOM
M  V30 BEGIN BOND
M  V30 1 1 1 2
M  V30 2 1 2 3
M  V30 3 1 2 4
M  V30 4 1 2 5
M  V30 5 2 5 6
M  V30 6 1 5 7
M  V30 7 1 6 8
M  V30 8 2 7 9
M  V30 9 2 8 10
M  V30 10 1 8 11
M  V30 11 1 11 12
M  V30 12 1 11 13
M  V30 13 1 12 14
M  V30 14 1 13 15
M  V30 15 2 14 16
M  V30 16 1 14 17
M  V30 17 1 16 18
M  V30 18 1 17 19
M  V30 19 2 18 20
M  V30 20 1 18 21
M  V30 21 2 19 22
M  V30 22 1 19 23
M  V30 23 1 22 24
M  V30 24 2 23 25
M  V30 25 1 24 26
M  V30 26 2 24 27
M  V30 27 1 26 28
M  V30 28 1 28 29
M  V30 29 1 29 30
M  V30 30 1 30 31
M  V30 31 2 30 32
M  V30 32 2 31 33
M  V30 33 1 32 34
M  V30 34 1 32 35
M  V30 35 1 33 36
M  V30 36 2 36 37
M  V30 37 1 36 38
M  V30 38 1 37 39
M  V30 39 2 38 40
M  V30 40 2 39 41
M  V30 41 1 9 10
M  V30 42 1 15 16
M  V30 43 1 25 27
M  V30 44 1 33 34
M  V30 45 1 40 41
M  V30 END BOND
M  V30 END CTAB
M  END
>  <Molecule ChEMBL ID>
CHEMBL255271

>  <Smiles>
Cc1oc(-c2ccccc2)nc1CCOc1cccc(CC2=C(C(=O)O)CCN(c3nccc(C(F)(F)F)n3)C2)c1

>  <IC50_nM>
1328

>  <Assay Description>
Binding affinity at human PPARalpha by fluorescence polarization

$$$$
CHEMBL3398438
Actelion Java MolfileCreator 2.0

  0  0  0  0  0  0              0 V3000
M  V30 BEGIN CTAB
M  V30 COUNTS 39 43 0 0 0
M  V30 BEGIN ATOM
M  V30 1 O 7.8298 -3.4249 0.0 0
M  V30 2 C 8.4176 -2.6159 0.0 0
M  V30 3 O 9.4121 -2.7205 0.0 0
M  V30 4 N 8.0108 -1.7024 0.0 0
M  V30 5 C 9.9999 -1.9114 0.0 0
M  V30 6 C 8.5108 -0.8364 0.0 0
M  V30 7 C 7.0327 -1.4945 0.0 0
M  V30 8 C 10.9944 -2.016 0.0 0
M  V30 9 C 9.5931 -0.9979 0.0 0
M  V30 10 C 7.8417 -0.0932 0.0 0 CFG=1
M  V30 11 C 6.9282 -0.5 0.0 0 CFG=2
M  V30 12 C 11.5822 -1.207 0.0 0
M  V30 13 C 10.1809 -0.1889 0.0 0
M  V30 14 C 8.0496 0.8848 0.0 0
M  V30 15 C 6.0621 0.0 0.0 0
M  V30 16 C 11.1754 -0.2934 0.0 0
M  V30 17 O 9.0007 1.1939 0.0 0
M  V30 18 O 7.3065 1.554 0.0 0
M  V30 19 C 5.1961 -0.5 0.0 0
M  V30 20 C 4.3301 0.0 0.0 0
M  V30 21 C 5.1961 -1.4999 0.0 0
M  V30 22 C 3.4641 -0.5 0.0 0
M  V30 23 C 4.3301 -1.9999 0.0 0
M  V30 24 O 2.598 0.0 0.0 0
M  V30 25 C 3.4641 -1.4999 0.0 0
M  V30 26 C 1.732 -0.5 0.0 0
M  V30 27 C 0.866 0.0 0.0 0
M  V30 28 C 0.0 -0.5 0.0 0
M  V30 29 N -0.9135 -0.0932 0.0 0
M  V30 30 C -0.1045 -1.4945 0.0 0
M  V30 31 C -1.5826 -0.8364 0.0 0
M  V30 32 O -1.0826 -1.7024 0.0 0
M  V30 33 C 0.6386 -2.1636 0.0 0
M  V30 34 C -2.5771 -0.7318 0.0 0
M  V30 35 C -2.9839 0.1816 0.0 0
M  V30 36 C -3.1649 -1.5408 0.0 0
M  V30 37 C -3.9784 0.2861 0.0 0
M  V30 38 C -4.1595 -1.4363 0.0 0
M  V30 39 C -4.5662 -0.5228 0.0 0
M  V30 END ATOM
M  V30 BEGIN BOND
M  V30 1 2 1 2
M  V30 2 1 2 3
M  V30 3 1 2 4
M  V30 4 1 3 5
M  V30 5 1 4 6
M  V30 6 1 4 7
M  V30 7 2 5 8
M  V30 8 1 5 9
M  V30 9 1 6 10
M  V30 10 1 7 11
M  V30 11 1 8 12
M  V30 12 2 9 13
M  V30 13 1 10 14 CFG=1
M  V30 14 1 11 15 CFG=1
M  V30 15 2 12 16
M  V30 16 2 14 17
M  V30 17 1 14 18
M  V30 18 1 15 19
M  V30 19 2 19 20
M  V30 20 1 19 21
M  V30 21 1 20 22
M  V30 22 2 21 23
M  V30 23 1 22 24
M  V30 24 2 22 25
M  V30 25 1 24 26
M  V30 26 1 26 27
M  V30 27 1 27 28
M  V30 28 1 28 29
M  V30 29 2 28 30
M  V30 30 2 29 31
M  V30 31 1 30 32
M  V30 32 1 30 33
M  V30 33 1 31 34
M  V30 34 2 34 35
M  V30 35 1 34 36
M  V30 36 1 35 37
M  V30 37 2 36 38
M  V30 38 2 37 39
M  V30 39 1 10 11
M  V30 40 1 13 16
M  V30 41 1 23 25
M  V30 42 1 31 32
M  V30 43 1 38 39
M  V30 END BOND
M  V30 BEGIN COLLECTION
M  V30 MDLV30/STEABS ATOMS=(2 10 11)
M  V30 END COLLECTION
M  V30 END CTAB
M  END
>  <Molecule ChEMBL ID>
CHEMBL3398438

>  <Smiles>
Cc1oc(-c2ccccc2)nc1CCOc1cccc(C[C@@H]2CN(C(=O)Oc3ccccc3)C[C@@H]2C(=O)O)c1

>  <IC50_nM>
1330

>  <Assay Description>
Binding affinity to PPARgamma (unknown origin) using fluorescein-tagged dual PPARalpha/gamma activator by homogeneous fluorescence polarization binding assay

$$$$
CHEMBL489506
Actelion Java MolfileCreator 2.0

  0  0  0  0  0  0              0 V3000
M  V30 BEGIN CTAB
M  V30 COUNTS 35 39 0 0 0
M  V30 BEGIN ATOM
M  V30 1 O 4.4725 -3.3546 0.0 0
M  V30 2 C 5.4235 -3.6636 0.0 0
M  V30 3 O 5.6314 -4.6418 0.0 0
M  V30 4 C 6.1667 -2.9945 0.0 0
M  V30 5 N 7.1448 -3.2024 0.0 0
M  V30 6 C 6.0621 -2.0 0.0 0
M  V30 7 N 7.6448 -2.3364 0.0 0
M  V30 8 N 6.9757 -1.5932 0.0 0
M  V30 9 C 5.1961 -1.4999 0.0 0
M  V30 10 C 8.6393 -2.2318 0.0 0
M  V30 11 C 5.1961 -0.5 0.0 0
M  V30 12 C 4.3301 -1.9999 0.0 0
M  V30 13 C 9.2271 -3.0408 0.0 0
M  V30 14 C 9.0461 -1.3183 0.0 0
M  V30 15 C 4.3301 0.0 0.0 0
M  V30 16 C 3.4641 -1.5 0.0 0
M  V30 17 C 10.2216 -2.9363 0.0 0
M  V30 18 C 10.0406 -1.2138 0.0 0
M  V30 19 C 3.4641 -0.5 0.0 0
M  V30 20 C 10.6284 -2.0228 0.0 0
M  V30 21 O 2.598 0.0 0.0 0
M  V30 22 C 1.732 -0.5 0.0 0
M  V30 23 C 0.866 0.0 0.0 0
M  V30 24 C 0.0 -0.5 0.0 0
M  V30 25 N -0.9135 -0.0932 0.0 0
M  V30 26 C -0.1045 -1.4945 0.0 0
M  V30 27 C -1.5826 -0.8364 0.0 0
M  V30 28 O -1.0826 -1.7024 0.0 0
M  V30 29 C 0.6386 -2.1636 0.0 0
M  V30 30 C -2.5771 -0.7318 0.0 0
M  V30 31 C -2.9839 0.1816 0.0 0
M  V30 32 C -3.1649 -1.5408 0.0 0
M  V30 33 C -3.9784 0.2861 0.0 0
M  V30 34 C -4.1595 -1.4363 0.0 0
M  V30 35 C -4.5662 -0.5228 0.0 0
M  V30 END ATOM
M  V30 BEGIN BOND
M  V30 1 2 1 2
M  V30 2 1 2 3
M  V30 3 1 2 4
M  V30 4 2 4 5
M  V30 5 1 4 6
M  V30 6 1 5 7
M  V30 7 2 6 8
M  V30 8 1 6 9
M  V30 9 1 7 10
M  V30 10 2 9 11
M  V30 11 1 9 12
M  V30 12 2 10 13
M  V30 13 1 10 14
M  V30 14 1 11 15
M  V30 15 2 12 16
M  V30 16 1 13 17
M  V30 17 2 14 18
M  V30 18 2 15 19
M  V30 19 2 17 20
M  V30 20 1 19 21
M  V30 21 1 21 22
M  V30 22 1 22 23
M  V30 23 1 23 24
M  V30 24 1 24 25
M  V30 25 2 24 26
M  V30 26 2 25 27
M  V30 27 1 26 28
M  V30 28 1 26 29
M  V30 29 1 27 30
M  V30 30 2 30 31
M  V30 31 1 30 32
M  V30 32 1 31 33
M  V30 33 2 32 34
M  V30 34 2 33 35
M  V30 35 1 7 8
M  V30 36 1 16 19
M  V30 37 1 18 20
M  V30 38 1 27 28
M  V30 39 1 34 35
M  V30 END BOND
M  V30 END CTAB
M  END
>  <Molecule ChEMBL ID>
CHEMBL489506

>  <Smiles>
Cc1oc(-c2ccccc2)nc1CCOc1ccc(-c2nn(-c3ccccc3)nc2C(=O)O)cc1

>  <IC50_nM>
1350

>  <Assay Description>
Binding affinity to PPARgamma by fluorescence polarization assay

$$$$
CHEMBL1090877
Actelion Java MolfileCreator 2.0

  0  0  0  0  0  0              0 V3000
M  V30 BEGIN CTAB
M  V30 COUNTS 37 40 0 0 0
M  V30 BEGIN ATOM
M  V30 1 O 5.1961 1.4999 0.0 0
M  V30 2 C 4.3301 0.9999 0.0 0
M  V30 3 O 4.3301 0.0 0.0 0
M  V30 4 N 3.4641 1.4999 0.0 0
M  V30 5 C 5.1961 -0.5 0.0 0
M  V30 6 C 2.598 1.0 0.0 0
M  V30 7 C 3.4641 2.4999 0.0 0
M  V30 8 C 6.0621 0.0 0.0 0
M  V30 9 C 5.1961 -1.5 0.0 0
M  V30 10 C 1.732 1.5 0.0 0
M  V30 11 C 4.3301 2.9999 0.0 0
M  V30 12 C 6.9282 -0.5 0.0 0
M  V30 13 C 6.0621 -2.0 0.0 0
M  V30 14 C 1.732 2.5 0.0 0
M  V30 15 C 0.866 1.0 0.0 0
M  V30 16 O 5.1961 2.4999 0.0 0
M  V30 17 O 4.3301 3.9999 0.0 0
M  V30 18 C 6.9282 -1.5 0.0 0
M  V30 19 C 0.866 3.0 0.0 0
M  V30 20 C 0.0 1.5 0.0 0
M  V30 21 C 7.7942 -2.0 0.0 0
M  V30 22 O 0.866 4.0 0.0 0
M  V30 23 C 0.0 2.5 0.0 0
M  V30 24 C 1.732 4.5 0.0 0
M  V30 25 C 1.732 5.5 0.0 0
M  V30 26 N 2.541 6.0877 0.0 0
M  V30 27 C 0.923 6.0877 0.0 0
M  V30 28 C 2.232 7.0388 0.0 0
M  V30 29 O 1.232 7.0388 0.0 0
M  V30 30 C -0.028 5.7787 0.0 0
M  V30 31 C 2.8198 7.8478 0.0 0
M  V30 32 C 3.8143 7.7433 0.0 0
M  V30 33 C 2.413 8.7614 0.0 0
M  V30 34 C 4.4021 8.5523 0.0 0
M  V30 35 C 3.0008 9.5704 0.0 0
M  V30 36 C 3.9954 9.4658 0.0 0
M  V30 37 C 4.5831 10.2749 0.0 0
M  V30 END ATOM
M  V30 BEGIN BOND
M  V30 1 2 1 2
M  V30 2 1 2 3
M  V30 3 1 2 4
M  V30 4 1 3 5
M  V30 5 1 4 6
M  V30 6 1 4 7
M  V30 7 2 5 8
M  V30 8 1 5 9
M  V30 9 1 6 10
M  V30 10 1 7 11
M  V30 11 1 8 12
M  V30 12 2 9 13
M  V30 13 2 10 14
M  V30 14 1 10 15
M  V30 15 2 11 16
M  V30 16 1 11 17
M  V30 17 2 12 18
M  V30 18 1 14 19
M  V30 19 2 15 20
M  V30 20 1 18 21
M  V30 21 1 19 22
M  V30 22 2 19 23
M  V30 23 1 22 24
M  V30 24 1 24 25
M  V30 25 1 25 26
M  V30 26 2 25 27
M  V30 27 2 26 28
M  V30 28 1 27 29
M  V30 29 1 27 30
M  V30 30 1 28 31
M  V30 31 2 31 32
M  V30 32 1 31 33
M  V30 33 1 32 34
M  V30 34 2 33 35
M  V30 35 2 34 36
M  V30 36 1 36 37
M  V30 37 1 13 18
M  V30 38 1 20 23
M  V30 39 1 28 29
M  V30 40 1 35 36
M  V30 END BOND
M  V30 END CTAB
M  END
>  <Molecule ChEMBL ID>
CHEMBL1090877

>  <Smiles>
Cc1ccc(OC(=O)N(CC(=O)O)Cc2cccc(OCc3nc(-c4ccc(C)cc4)oc3C)c2)cc1

>  <IC50_nM>
1361

>  <Assay Description>
Binding affinity to human His-tagged PPARgamma LBD (Q203-Y477) expressed in Escherichia coli BL21 (DE3) by fluorescence polarization assay

$$$$
CHEMBL197221
Actelion Java MolfileCreator 2.0

  0  0  0  0  0  0              0 V3000
M  V30 BEGIN CTAB
M  V30 COUNTS 37 40 0 0 0
M  V30 BEGIN ATOM
M  V30 1 F 10.8713 -2.451 0.0 0
M  V30 2 C 9.9203 -2.76 0.0 0
M  V30 3 F 10.2293 -3.7111 0.0 0
M  V30 4 F 8.9692 -3.069 0.0 0
M  V30 5 C 9.6113 -1.809 0.0 0
M  V30 6 N 10.199 -1.0 0.0 0
M  V30 7 C 8.6602 -1.5 0.0 0
M  V30 8 O 9.6113 -0.1909 0.0 0
M  V30 9 C 8.6602 -0.5 0.0 0
M  V30 10 C 7.7942 -2.0 0.0 0
M  V30 11 C 7.7942 0.0 0.0 0
M  V30 12 C 6.9282 -1.4999 0.0 0
M  V30 13 C 6.9282 -0.5 0.0 0
M  V30 14 C 7.7942 0.9999 0.0 0
M  V30 15 O 6.0621 0.0 0.0 0
M  V30 16 C 8.6602 1.4999 0.0 0
M  V30 17 C 5.1961 -0.5 0.0 0
M  V30 18 C 8.6602 2.4999 0.0 0
M  V30 19 C 4.3301 0.0 0.0 0
M  V30 20 C 3.4641 -0.5 0.0 0 CFG=2
M  V30 21 C 2.598 0.0 0.0 0
M  V30 22 C 3.4641 -1.5 0.0 0
M  V30 23 C 1.732 -0.5 0.0 0
M  V30 24 O 0.866 0.0 0.0 0
M  V30 25 C 0.0 -0.5 0.0 0
M  V30 26 C 0.0 -1.4999 0.0 0
M  V30 27 C -0.866 0.0 0.0 0
M  V30 28 C -0.866 -1.9999 0.0 0
M  V30 29 C -1.732 -0.4999 0.0 0
M  V30 30 C -1.732 -1.4999 0.0 0
M  V30 31 C -1.0739 -2.9781 0.0 0
M  V30 32 N -2.4751 -2.1691 0.0 0
M  V30 33 C -2.0684 -3.0826 0.0 0
M  V30 34 C -3.4533 -1.9612 0.0 0
M  V30 35 C -3.7623 -1.0101 0.0 0
M  V30 36 O -3.0932 -0.267 0.0 0
M  V30 37 O -4.7405 -0.8022 0.0 0
M  V30 END ATOM
M  V30 BEGIN BOND
M  V30 1 1 1 2
M  V30 2 1 2 3
M  V30 3 1 2 4
M  V30 4 1 2 5
M  V30 5 2 5 6
M  V30 6 1 5 7
M  V30 7 1 6 8
M  V30 8 2 7 9
M  V30 9 1 7 10
M  V30 10 1 9 11
M  V30 11 2 10 12
M  V30 12 2 11 13
M  V30 13 1 11 14
M  V30 14 1 13 15
M  V30 15 1 14 16
M  V30 16 1 15 17
M  V30 17 1 16 18
M  V30 18 1 17 19
M  V30 19 1 19 20
M  V30 20 1 20 21
M  V30 21 1 20 22 CFG=1
M  V30 22 1 21 23
M  V30 23 1 23 24
M  V30 24 1 24 25
M  V30 25 2 25 26
M  V30 26 1 25 27
M  V30 27 1 26 28
M  V30 28 2 27 29
M  V30 29 2 28 30
M  V30 30 1 28 31
M  V30 31 1 30 32
M  V30 32 2 31 33
M  V30 33 1 32 34
M  V30 34 1 34 35
M  V30 35 2 35 36
M  V30 36 1 35 37
M  V30 37 1 8 9
M  V30 38 1 12 13
M  V30 39 1 29 30
M  V30 40 1 32 33
M  V30 END BOND
M  V30 BEGIN COLLECTION
M  V30 MDLV30/STERAC1 ATOMS=(1 20)
M  V30 END COLLECTION
M  V30 END CTAB
M  END
>  <Molecule ChEMBL ID>
CHEMBL197221

>  <Smiles>
CCCc1c(OCCC(C)CCOc2ccc3c(ccn3CC(=O)O)c2)ccc2c(C(F)(F)F)noc12

>  <IC50_nM>
1368

>  <Assay Description>
Displacement of [3H]rosiglitazone from human PPAR gamma by SPA assay

$$$$
CHEMBL258212
Actelion Java MolfileCreator 2.0

  0  0  0  0  0  0              0 V3000
M  V30 BEGIN CTAB
M  V30 COUNTS 38 41 0 0 0
M  V30 BEGIN ATOM
M  V30 1 O 6.0621 -3.0 0.0 0
M  V30 2 C 5.1961 -3.5 0.0 0
M  V30 3 O 5.1961 -4.5 0.0 0
M  V30 4 N 4.3301 -3.0 0.0 0
M  V30 5 C 4.3301 -5.0 0.0 0
M  V30 6 C 3.4641 -3.5 0.0 0
M  V30 7 C 4.3301 -2.0 0.0 0
M  V30 8 C 4.3301 -6.0 0.0 0
M  V30 9 C 2.598 -3.0 0.0 0
M  V30 10 C 3.4641 -1.5 0.0 0
M  V30 11 C 5.1961 -6.5 0.0 0
M  V30 12 C 3.4641 -6.5 0.0 0
M  V30 13 C 2.598 -2.0 0.0 0
M  V30 14 C 1.732 -3.5 0.0 0
M  V30 15 C 1.732 -1.5 0.0 0
M  V30 16 C 1.732 -4.5 0.0 0
M  V30 17 O 0.866 -2.0 0.0 0
M  V30 18 O 1.732 -0.5 0.0 0
M  V30 19 C 0.866 -5.0 0.0 0
M  V30 20 C 2.598 -4.9999 0.0 0
M  V30 21 C 0.866 -5.9999 0.0 0
M  V30 22 C 2.598 -5.9999 0.0 0
M  V30 23 O 0.0 -6.5 0.0 0
M  V30 24 C 1.732 -6.4999 0.0 0
M  V30 25 C 0.0 -7.5 0.0 0
M  V30 26 C -0.866 -7.9999 0.0 0
M  V30 27 C -0.866 -9.0 0.0 0
M  V30 28 N -1.675 -9.5877 0.0 0
M  V30 29 C -0.057 -9.5877 0.0 0
M  V30 30 C -1.366 -10.5388 0.0 0
M  V30 31 O -0.366 -10.5388 0.0 0
M  V30 32 C 0.894 -9.2787 0.0 0
M  V30 33 C -1.9538 -11.3478 0.0 0
M  V30 34 C -2.9483 -11.2433 0.0 0
M  V30 35 C -1.547 -12.2614 0.0 0
M  V30 36 C -3.5361 -12.0523 0.0 0
M  V30 37 C -2.1348 -13.0704 0.0 0
M  V30 38 C -3.1293 -12.9658 0.0 0
M  V30 END ATOM
M  V30 BEGIN BOND
M  V30 1 2 1 2
M  V30 2 1 2 3
M  V30 3 1 2 4
M  V30 4 1 3 5
M  V30 5 1 4 6
M  V30 6 1 4 7
M  V30 7 1 5 8
M  V30 8 1 6 9
M  V30 9 1 7 10
M  V30 10 1 8 11
M  V30 11 1 8 12
M  V30 12 1 9 13
M  V30 13 1 9 14
M  V30 14 1 13 15
M  V30 15 1 14 16
M  V30 16 2 15 17
M  V30 17 1 15 18
M  V30 18 2 16 19
M  V30 19 1 16 20
M  V30 20 1 19 21
M  V30 21 2 20 22
M  V30 22 1 21 23
M  V30 23 2 21 24
M  V30 24 1 23 25
M  V30 25 1 25 26
M  V30 26 1 26 27
M  V30 27 1 27 28
M  V30 28 2 27 29
M  V30 29 2 28 30
M  V30 30 1 29 31
M  V30 31 1 29 32
M  V30 32 1 30 33
M  V30 33 2 33 34
M  V30 34 1 33 35
M  V30 35 1 34 36
M  V30 36 2 35 37
M  V30 37 2 36 38
M  V30 38 1 10 13
M  V30 39 1 22 24
M  V30 40 1 30 31
M  V30 41 1 37 38
M  V30 END BOND
M  V30 END CTAB
M  END
>  <Molecule ChEMBL ID>
CHEMBL258212

>  <Smiles>
Cc1oc(-c2ccccc2)nc1CCOc1cccc(CC2CN(C(=O)OCC(C)C)CCC2C(=O)O)c1

>  <IC50_nM>
1370

>  <Assay Description>
Binding affinity at human PPARalpha by fluorescence polarization

$$$$
CHEMBL1946569
Actelion Java MolfileCreator 2.0

  0  0  0  0  0  0              0 V3000
M  V30 BEGIN CTAB
M  V30 COUNTS 38 42 0 0 0
M  V30 BEGIN ATOM
M  V30 1 Cl 4.3301 0.9999 0.0 0
M  V30 2 C 4.3301 0.0 0.0 0
M  V30 3 C 3.4641 -0.5 0.0 0
M  V30 4 C 5.1961 -0.5 0.0 0
M  V30 5 O 2.598 0.0 0.0 0
M  V30 6 C 3.4641 -1.5 0.0 0
M  V30 7 C 5.1961 -1.5 0.0 0
M  V30 8 C 1.732 -0.5 0.0 0 CFG=1
M  V30 9 C 4.3301 -2.0 0.0 0
M  V30 10 C 0.866 0.0 0.0 0
M  V30 11 C 1.732 -1.5 0.0 0
M  V30 12 C 4.3301 -3.0 0.0 0
M  V30 13 O 0.866 1.0 0.0 0
M  V30 14 O 0.0 -0.5 0.0 0
M  V30 15 N 5.1961 -3.5 0.0 0
M  V30 16 C 5.3006 -4.4945 0.0 0
M  V30 17 C 6.1096 -3.0932 0.0 0
M  V30 18 O 4.5575 -5.1636 0.0 0
M  V30 19 N 6.2788 -4.7024 0.0 0
M  V30 20 C 6.7788 -3.8364 0.0 0
M  V30 21 C 6.4187 -2.1422 0.0 0
M  V30 22 C 6.6855 -5.6159 0.0 0
M  V30 23 C 7.7569 -3.6284 0.0 0
M  V30 24 C 7.3968 -1.9342 0.0 0
M  V30 25 S 6.1855 -6.482 0.0 0
M  V30 26 N 7.6637 -5.8238 0.0 0
M  V30 27 C 8.0659 -2.6774 0.0 0
M  V30 28 C 7.7058 -0.9832 0.0 0
M  V30 29 C 6.8546 -7.2251 0.0 0
M  V30 30 C 7.7682 -6.8184 0.0 0
M  V30 31 F 6.7548 -0.6742 0.0 0
M  V30 32 F 8.0148 -0.0321 0.0 0
M  V30 33 F 8.6569 -1.2922 0.0 0
M  V30 34 C 6.7501 -8.2196 0.0 0
M  V30 35 C 8.5772 -7.4061 0.0 0
M  V30 36 C 7.5591 -8.8074 0.0 0
M  V30 37 C 8.4727 -8.4007 0.0 0
M  V30 38 Cl 7.4546 -9.8019 0.0 0
M  V30 END ATOM
M  V30 BEGIN BOND
M  V30 1 1 1 2
M  V30 2 2 2 3
M  V30 3 1 2 4
M  V30 4 1 3 5
M  V30 5 1 3 6
M  V30 6 2 4 7
M  V30 7 1 5 8
M  V30 8 2 6 9
M  V30 9 1 8 10
M  V30 10 1 8 11 CFG=3
M  V30 11 1 9 12
M  V30 12 2 10 13
M  V30 13 1 10 14
M  V30 14 1 12 15
M  V30 15 1 15 16
M  V30 16 1 15 17
M  V30 17 2 16 18
M  V30 18 1 16 19
M  V30 19 2 17 20
M  V30 20 1 17 21
M  V30 21 1 19 22
M  V30 22 1 20 23
M  V30 23 2 21 24
M  V30 24 1 22 25
M  V30 25 2 22 26
M  V30 26 2 23 27
M  V30 27 1 24 28
M  V30 28 1 25 29
M  V30 29 1 26 30
M  V30 30 1 28 31
M  V30 31 1 28 32
M  V30 32 1 28 33
M  V30 33 1 29 34
M  V30 34 1 30 35
M  V30 35 2 34 36
M  V30 36 2 35 37
M  V30 37 1 36 38
M  V30 38 1 7 9
M  V30 39 1 19 20
M  V30 40 1 24 27
M  V30 41 2 29 30
M  V30 42 1 36 37
M  V30 END BOND
M  V30 BEGIN COLLECTION
M  V30 MDLV30/STEABS ATOMS=(1 8)
M  V30 END COLLECTION
M  V30 END CTAB
M  END
>  <Molecule ChEMBL ID>
CHEMBL1946569

>  <Smiles>
C[C@@H](Oc1cc(Cn2c(=O)n(-c3nc4ccc(Cl)cc4s3)c3ccc(C(F)(F)F)cc32)ccc1Cl)C(=O)O

>  <IC50_nM>
1374

>  <Assay Description>
Binding affinity to human PPARgamma by scintillation proximity assay

$$$$
CHEMBL111161
Actelion Java MolfileCreator 2.0

  0  0  0  0  0  0              0 V3000
M  V30 BEGIN CTAB
M  V30 COUNTS 37 40 0 0 0
M  V30 BEGIN ATOM
M  V30 1 Cl 7.7942 -6.0 0.0 0
M  V30 2 C 7.7942 -5.0 0.0 0
M  V30 3 C 8.6602 -4.5 0.0 0
M  V30 4 C 6.9282 -4.5 0.0 0
M  V30 5 C 8.6602 -3.5 0.0 0
M  V30 6 C 6.9282 -3.5 0.0 0
M  V30 7 C 7.7942 -3.0 0.0 0
M  V30 8 O 7.7942 -2.0 0.0 0
M  V30 9 C 6.9282 -1.5 0.0 0
M  V30 10 C 6.9282 -0.5 0.0 0
M  V30 11 C 6.0621 -2.0 0.0 0
M  V30 12 C 6.0621 0.0 0.0 0
M  V30 13 C 5.1961 -1.5 0.0 0
M  V30 14 C 5.1961 -0.5 0.0 0
M  V30 15 C 6.0621 0.9999 0.0 0
M  V30 16 O 4.3301 0.0 0.0 0
M  V30 17 C 6.9282 1.4999 0.0 0
M  V30 18 C 3.4641 -0.5 0.0 0
M  V30 19 C 6.9282 2.4999 0.0 0
M  V30 20 C 2.598 0.0 0.0 0
M  V30 21 C 1.732 -0.5 0.0 0
M  V30 22 O 0.866 0.0 0.0 0
M  V30 23 C 0.0 -0.5 0.0 0
M  V30 24 C -0.866 0.0 0.0 0
M  V30 25 C 0.0 -1.4999 0.0 0
M  V30 26 C -1.732 -0.4999 0.0 0
M  V30 27 C -0.866 -1.9999 0.0 0
M  V30 28 O -2.598 0.0 0.0 0
M  V30 29 C -1.732 -1.4999 0.0 0
M  V30 30 C -3.4641 -0.4999 0.0 0 CFG=2
M  V30 31 C -2.598 -1.9999 0.0 0
M  V30 32 C -3.4641 0.5 0.0 0
M  V30 33 C -3.4641 -1.4999 0.0 0
M  V30 34 C -4.3301 0.0 0.0 0
M  V30 35 O -4.3301 1.0 0.0 0
M  V30 36 O -2.598 1.0 0.0 0
M  V30 37 C -5.1961 -0.4999 0.0 0
M  V30 END ATOM
M  V30 BEGIN BOND
M  V30 1 1 1 2
M  V30 2 2 2 3
M  V30 3 1 2 4
M  V30 4 1 3 5
M  V30 5 2 4 6
M  V30 6 2 5 7
M  V30 7 1 7 8
M  V30 8 1 8 9
M  V30 9 2 9 10
M  V30 10 1 9 11
M  V30 11 1 10 12
M  V30 12 2 11 13
M  V30 13 2 12 14
M  V30 14 1 12 15
M  V30 15 1 14 16
M  V30 16 1 15 17
M  V30 17 1 16 18
M  V30 18 1 17 19
M  V30 19 1 18 20
M  V30 20 1 20 21
M  V30 21 1 21 22
M  V30 22 1 22 23
M  V30 23 2 23 24
M  V30 24 1 23 25
M  V30 25 1 24 26
M  V30 26 2 25 27
M  V30 27 1 26 28
M  V30 28 2 26 29
M  V30 29 1 28 30
M  V30 30 1 29 31
M  V30 31 1 30 32 CFG=1
M  V30 32 1 30 33
M  V30 33 1 30 34
M  V30 34 2 32 35
M  V30 35 1 32 36
M  V30 36 1 34 37
M  V30 37 1 6 7
M  V30 38 1 13 14
M  V30 39 1 27 29
M  V30 40 1 31 33
M  V30 END BOND
M  V30 BEGIN COLLECTION
M  V30 MDLV30/STERAC1 ATOMS=(1 30)
M  V30 END COLLECTION
M  V30 END CTAB
M  END
>  <Molecule ChEMBL ID>
CHEMBL111161

>  <Smiles>
CCCc1cc(Oc2ccc(Cl)cc2)ccc1OCCCOc1ccc2c(c1)OC(CC)(C(=O)O)CC2

>  <IC50_nM>
1400

>  <Assay Description>
In vitro binding affinity for human peroxisome proliferator activated receptor gamma using scintillation proximity assay (SPA)

$$$$
CHEMBL111480
Actelion Java MolfileCreator 2.0

  0  0  0  0  0  0              0 V3000
M  V30 BEGIN CTAB
M  V30 COUNTS 33 36 0 0 0
M  V30 BEGIN ATOM
M  V30 1 Cl 6.0621 1.0 0.0 0
M  V30 2 C 6.0621 0.0 0.0 0
M  V30 3 C 5.1961 -0.5 0.0 0
M  V30 4 C 6.9282 -0.4999 0.0 0
M  V30 5 O 4.3301 0.0 0.0 0
M  V30 6 C 5.1961 -1.4999 0.0 0
M  V30 7 C 6.9282 -1.4999 0.0 0
M  V30 8 C 3.4641 -0.5 0.0 0
M  V30 9 C 6.0621 -1.9999 0.0 0
M  V30 10 O 7.7942 -1.9999 0.0 0
M  V30 11 C 2.598 0.0 0.0 0
M  V30 12 C 8.6602 -1.4999 0.0 0
M  V30 13 C 1.732 -0.5 0.0 0
M  V30 14 C 9.5262 -1.9999 0.0 0
M  V30 15 C 8.6602 -0.4999 0.0 0
M  V30 16 O 0.866 0.0 0.0 0
M  V30 17 C 10.3923 -1.4999 0.0 0
M  V30 18 C 9.5262 0.0 0.0 0
M  V30 19 C 0.0 -0.5 0.0 0
M  V30 20 C 10.3923 -0.5 0.0 0
M  V30 21 C -0.866 0.0 0.0 0
M  V30 22 C 0.0 -1.4999 0.0 0
M  V30 23 C -1.732 -0.4999 0.0 0
M  V30 24 C -0.866 -1.9999 0.0 0
M  V30 25 O -2.598 0.0 0.0 0
M  V30 26 C -1.732 -1.4999 0.0 0
M  V30 27 C -3.4641 -0.4999 0.0 0 CFG=2
M  V30 28 C -2.598 -1.9999 0.0 0
M  V30 29 C -4.3301 0.0 0.0 0
M  V30 30 C -3.4641 -1.4999 0.0 0
M  V30 31 C -4.3301 -0.9999 0.0 0
M  V30 32 O -5.1961 -0.4999 0.0 0
M  V30 33 O -4.3301 1.0 0.0 0
M  V30 END ATOM
M  V30 BEGIN BOND
M  V30 1 1 1 2
M  V30 2 2 2 3
M  V30 3 1 2 4
M  V30 4 1 3 5
M  V30 5 1 3 6
M  V30 6 2 4 7
M  V30 7 1 5 8
M  V30 8 2 6 9
M  V30 9 1 7 10
M  V30 10 1 8 11
M  V30 11 1 10 12
M  V30 12 1 11 13
M  V30 13 2 12 14
M  V30 14 1 12 15
M  V30 15 1 13 16
M  V30 16 1 14 17
M  V30 17 2 15 18
M  V30 18 1 16 19
M  V30 19 2 17 20
M  V30 20 2 19 21
M  V30 21 1 19 22
M  V30 22 1 21 23
M  V30 23 2 22 24
M  V30 24 1 23 25
M  V30 25 2 23 26
M  V30 26 1 25 27
M  V30 27 1 26 28
M  V30 28 1 27 29
M  V30 29 1 27 30
M  V30 30 1 27 31 CFG=3
M  V30 31 2 29 32
M  V30 32 1 29 33
M  V30 33 1 7 9
M  V30 34 1 18 20
M  V30 35 1 24 26
M  V30 36 1 28 30
M  V30 END BOND
M  V30 BEGIN COLLECTION
M  V30 MDLV30/STERAC1 ATOMS=(1 27)
M  V30 END COLLECTION
M  V30 END CTAB
M  END
>  <Molecule ChEMBL ID>
CHEMBL111480

>  <Smiles>
CC1(C(=O)O)CCc2ccc(OCCCOc3ccc(Oc4ccccc4)cc3Cl)cc2O1

>  <IC50_nM>
1400

>  <Assay Description>
In vitro binding affinity for human peroxisome proliferator activated receptor gamma using scintillation proximity assay (SPA)

$$$$
CHEMBL176075
Actelion Java MolfileCreator 2.0

  0  0  0  0  0  0              0 V3000
M  V30 BEGIN CTAB
M  V30 COUNTS 33 36 0 0 0
M  V30 BEGIN ATOM
M  V30 1 Cl 6.0621 1.0 0.0 0
M  V30 2 C 6.0621 0.0 0.0 0
M  V30 3 C 5.1961 -0.5 0.0 0
M  V30 4 C 6.9282 -0.4999 0.0 0
M  V30 5 O 4.3301 0.0 0.0 0
M  V30 6 C 5.1961 -1.4999 0.0 0
M  V30 7 C 6.9282 -1.4999 0.0 0
M  V30 8 C 3.4641 -0.5 0.0 0
M  V30 9 C 6.0621 -1.9999 0.0 0
M  V30 10 C 7.7942 -1.9999 0.0 0
M  V30 11 C 2.598 0.0 0.0 0
M  V30 12 C 7.7942 -2.9999 0.0 0
M  V30 13 C 8.6602 -1.4999 0.0 0
M  V30 14 C 1.732 -0.5 0.0 0
M  V30 15 C 8.6602 -3.4999 0.0 0
M  V30 16 C 9.5262 -1.9999 0.0 0
M  V30 17 O 0.866 0.0 0.0 0
M  V30 18 C 9.5262 -2.9999 0.0 0
M  V30 19 C 0.0 -0.5 0.0 0
M  V30 20 C -0.866 0.0 0.0 0
M  V30 21 C 0.0 -1.4999 0.0 0
M  V30 22 C -1.732 -0.4999 0.0 0
M  V30 23 C -0.866 -1.9999 0.0 0
M  V30 24 O -2.598 0.0 0.0 0
M  V30 25 C -1.732 -1.4999 0.0 0
M  V30 26 C -3.4641 -0.4999 0.0 0 CFG=1
M  V30 27 C -2.598 -1.9999 0.0 0
M  V30 28 C -3.4641 0.5 0.0 0
M  V30 29 C -3.4641 -1.4999 0.0 0
M  V30 30 C -4.3301 0.0 0.0 0
M  V30 31 O -4.3301 1.0 0.0 0
M  V30 32 O -2.598 1.0 0.0 0
M  V30 33 C -5.1961 -0.4999 0.0 0
M  V30 END ATOM
M  V30 BEGIN BOND
M  V30 1 1 1 2
M  V30 2 2 2 3
M  V30 3 1 2 4
M  V30 4 1 3 5
M  V30 5 1 3 6
M  V30 6 2 4 7
M  V30 7 1 5 8
M  V30 8 2 6 9
M  V30 9 1 7 10
M  V30 10 1 8 11
M  V30 11 1 10 12
M  V30 12 1 10 13
M  V30 13 1 11 14
M  V30 14 1 12 15
M  V30 15 1 13 16
M  V30 16 1 14 17
M  V30 17 1 15 18
M  V30 18 1 17 19
M  V30 19 2 19 20
M  V30 20 1 19 21
M  V30 21 1 20 22
M  V30 22 2 21 23
M  V30 23 1 22 24
M  V30 24 2 22 25
M  V30 25 1 24 26
M  V30 26 1 25 27
M  V30 27 1 26 28 CFG=3
M  V30 28 1 26 29
M  V30 29 1 26 30
M  V30 30 2 28 31
M  V30 31 1 28 32
M  V30 32 1 30 33
M  V30 33 1 7 9
M  V30 34 1 16 18
M  V30 35 1 23 25
M  V30 36 1 27 29
M  V30 END BOND
M  V30 BEGIN COLLECTION
M  V30 MDLV30/STEABS ATOMS=(1 26)
M  V30 END COLLECTION
M  V30 END CTAB
M  END
>  <Molecule ChEMBL ID>
CHEMBL176075

>  <Smiles>
CC[C@]1(C(=O)O)CCc2ccc(OCCCOc3ccc(C4CCCCC4)cc3Cl)cc2O1

>  <IC50_nM>
1400

>  <Assay Description>
In vitro binding affinity against human PPARgamma

$$$$
CHEMBL112790
Actelion Java MolfileCreator 2.0

  0  0  0  0  0  0              0 V3000
M  V30 BEGIN CTAB
M  V30 COUNTS 33 36 0 0 0
M  V30 BEGIN ATOM
M  V30 1 Cl 6.0621 1.0 0.0 0
M  V30 2 C 6.0621 0.0 0.0 0
M  V30 3 C 5.1961 -0.5 0.0 0
M  V30 4 C 6.9282 -0.4999 0.0 0
M  V30 5 O 4.3301 0.0 0.0 0
M  V30 6 C 5.1961 -1.4999 0.0 0
M  V30 7 C 6.9282 -1.4999 0.0 0
M  V30 8 C 3.4641 -0.5 0.0 0
M  V30 9 C 6.0621 -1.9999 0.0 0
M  V30 10 O 7.7942 -1.9999 0.0 0
M  V30 11 C 2.598 0.0 0.0 0
M  V30 12 C 8.6602 -1.4999 0.0 0
M  V30 13 C 1.732 -0.5 0.0 0
M  V30 14 C 9.5262 -1.9999 0.0 0
M  V30 15 C 8.6602 -0.4999 0.0 0
M  V30 16 O 0.866 0.0 0.0 0
M  V30 17 C 10.3923 -1.4999 0.0 0
M  V30 18 C 9.5262 0.0 0.0 0
M  V30 19 C 0.0 -0.5 0.0 0
M  V30 20 C 10.3923 -0.5 0.0 0
M  V30 21 C -0.866 0.0 0.0 0
M  V30 22 C 0.0 -1.4999 0.0 0
M  V30 23 C -1.732 -0.4999 0.0 0
M  V30 24 C -0.866 -1.9999 0.0 0
M  V30 25 O -2.598 0.0 0.0 0
M  V30 26 C -1.732 -1.4999 0.0 0
M  V30 27 C -3.4641 -0.4999 0.0 0 CFG=2
M  V30 28 C -2.598 -1.9999 0.0 0
M  V30 29 C -4.3301 0.0 0.0 0
M  V30 30 C -3.4641 -1.4999 0.0 0
M  V30 31 C -4.3301 -0.9999 0.0 0
M  V30 32 O -5.1961 -0.4999 0.0 0
M  V30 33 O -4.3301 1.0 0.0 0
M  V30 END ATOM
M  V30 BEGIN BOND
M  V30 1 1 1 2
M  V30 2 2 2 3
M  V30 3 1 2 4
M  V30 4 1 3 5
M  V30 5 1 3 6
M  V30 6 2 4 7
M  V30 7 1 5 8
M  V30 8 2 6 9
M  V30 9 1 7 10
M  V30 10 1 8 11
M  V30 11 1 10 12
M  V30 12 1 11 13
M  V30 13 2 12 14
M  V30 14 1 12 15
M  V30 15 1 13 16
M  V30 16 1 14 17
M  V30 17 2 15 18
M  V30 18 1 16 19
M  V30 19 2 17 20
M  V30 20 2 19 21
M  V30 21 1 19 22
M  V30 22 1 21 23
M  V30 23 2 22 24
M  V30 24 1 23 25
M  V30 25 2 23 26
M  V30 26 1 25 27
M  V30 27 1 26 28
M  V30 28 1 27 29
M  V30 29 1 27 30
M  V30 30 1 27 31 CFG=3
M  V30 31 2 29 32
M  V30 32 1 29 33
M  V30 33 1 7 9
M  V30 34 1 18 20
M  V30 35 1 24 26
M  V30 36 1 28 30
M  V30 END BOND
M  V30 BEGIN COLLECTION
M  V30 MDLV30/STEABS ATOMS=(1 27)
M  V30 END COLLECTION
M  V30 END CTAB
M  END
>  <Molecule ChEMBL ID>
CHEMBL112790

>  <Smiles>
C[C@@]1(C(=O)O)CCc2ccc(OCCCOc3ccc(Oc4ccccc4)cc3Cl)cc2O1

>  <IC50_nM>
1400

>  <Assay Description>
In vitro binding affinity for human PPAR gamma receptor using scintillation proximity assay (SPA)

$$$$
CHEMBL254814
Actelion Java MolfileCreator 2.0

  0  0  0  0  0  0              0 V3000
M  V30 BEGIN CTAB
M  V30 COUNTS 36 39 0 0 0
M  V30 BEGIN ATOM
M  V30 1 Cl 9.5262 -2.9999 0.0 0
M  V30 2 C 8.6602 -3.4999 0.0 0
M  V30 3 C 7.7942 -2.9999 0.0 0
M  V30 4 C 8.6602 -4.4999 0.0 0
M  V30 5 O 7.7942 -1.9999 0.0 0
M  V30 6 C 6.9282 -3.4999 0.0 0
M  V30 7 C 7.7942 -4.9999 0.0 0
M  V30 8 C 9.5262 -4.9999 0.0 0
M  V30 9 C 8.6602 -1.4999 0.0 0
M  V30 10 C 6.0621 -2.9999 0.0 0
M  V30 11 C 6.9282 -4.4999 0.0 0
M  V30 12 C 6.0621 -1.9999 0.0 0
M  V30 13 C 5.1961 -3.5 0.0 0
M  V30 14 C 6.0621 -4.9999 0.0 0
M  V30 15 O 6.9282 -1.4999 0.0 0
M  V30 16 C 5.1961 -1.4999 0.0 0
M  V30 17 C 4.3301 -3.0 0.0 0
M  V30 18 C 5.1961 -4.4999 0.0 0
M  V30 19 C 4.3301 -1.9999 0.0 0
M  V30 20 C 5.1961 -0.4999 0.0 0
M  V30 21 O 3.4641 -3.5 0.0 0
M  V30 22 O 4.3301 -5.0 0.0 0
M  V30 23 C 3.4641 -1.4999 0.0 0
M  V30 24 C 4.3301 0.0 0.0 0
M  V30 25 O 2.598 -1.9999 0.0 0
M  V30 26 C 3.4641 -0.5 0.0 0
M  V30 27 C 4.3301 0.9999 0.0 0
M  V30 28 C 2.598 0.0 0.0 0 CFG=1
M  V30 29 O 3.4641 1.4999 0.0 0
M  V30 30 O 5.1961 1.5 0.0 0
M  V30 31 O 1.732 -0.5 0.0 0
M  V30 32 C 2.598 1.0 0.0 0
M  V30 33 C 5.1961 2.5 0.0 0
M  V30 34 C 0.866 0.0 0.0 0
M  V30 35 O 0.866 1.0 0.0 0
M  V30 36 C 0.0 -0.5 0.0 0
M  V30 END ATOM
M  V30 BEGIN BOND
M  V30 1 1 1 2
M  V30 2 2 2 3
M  V30 3 1 2 4
M  V30 4 1 3 5
M  V30 5 1 3 6
M  V30 6 2 4 7
M  V30 7 1 4 8
M  V30 8 1 5 9
M  V30 9 2 6 10
M  V30 10 1 6 11
M  V30 11 1 10 12
M  V30 12 1 10 13
M  V30 13 2 11 14
M  V30 14 2 12 15
M  V30 15 1 12 16
M  V30 16 1 13 17
M  V30 17 2 13 18
M  V30 18 2 16 19
M  V30 19 1 16 20
M  V30 20 2 17 21
M  V30 21 1 18 22
M  V30 22 1 19 23
M  V30 23 2 20 24
M  V30 24 1 23 25
M  V30 25 2 23 26
M  V30 26 1 24 27
M  V30 27 1 26 28
M  V30 28 2 27 29
M  V30 29 1 27 30
M  V30 30 1 28 31
M  V30 31 1 28 32 CFG=1
M  V30 32 1 30 33
M  V30 33 1 31 34
M  V30 34 2 34 35
M  V30 35 1 34 36
M  V30 36 1 7 11
M  V30 37 1 14 18
M  V30 38 1 17 19
M  V30 39 1 24 26
M  V30 END BOND
M  V30 BEGIN COLLECTION
M  V30 MDLV30/STERAC1 ATOMS=(1 28)
M  V30 END COLLECTION
M  V30 END CTAB
M  END
>  <Molecule ChEMBL ID>
CHEMBL254814

>  <Smiles>
COC(=O)c1cc2c(c(O)c1C(C)OC(C)=O)C(=O)c1c(O)cc3cc(C)c(Cl)c(OC)c3c1C2=O

>  <IC50_nM>
1400

>  <Assay Description>
Antagonist activity at human PPARgamma receptor in CHO-K1 cells assessed as rosiglitazone-induced receptor activation by cell based reporter assay

$$$$
CHEMBL557580
Actelion Java MolfileCreator 2.0

  0  0  0  0  0  0              0 V3000
M  V30 BEGIN CTAB
M  V30 COUNTS 39 41 0 0 0
M  V30 BEGIN ATOM
M  V30 1 Cl 3.8084 0.7748 0.0 0
M  V30 2 O -0.0445 4.6858 0.0 0
M  V30 3 C -0.8105 4.043 0.0 0
M  V30 4 O -1.7502 4.3851 0.0 0
M  V30 5 N -0.6369 3.0582 0.0 0
M  V30 6 C -1.9239 5.3699 0.0 0
M  V30 7 C -1.4029 2.4154 0.0 0
M  V30 8 C 0.3027 2.7162 0.0 0
M  V30 9 C -1.1578 6.0127 0.0 0
M  V30 10 C -2.8636 5.7119 0.0 0
M  V30 11 C -1.2293 1.4306 0.0 0
M  V30 12 C 1.0688 3.359 0.0 0
M  V30 13 C -1.3315 6.9975 0.0 0
M  V30 14 C -3.0372 6.6967 0.0 0
M  V30 15 C -1.9953 0.7878 0.0 0
M  V30 16 C -0.2896 1.0886 0.0 0
M  V30 17 O 0.8951 4.3438 0.0 0
M  V30 18 O 2.0084 3.017 0.0 0
M  V30 19 C -2.2712 7.3395 0.0 0
M  V30 20 C -1.8217 -0.1969 0.0 0
M  V30 21 C -0.1159 0.1038 0.0 0
M  V30 22 O -2.4448 8.3243 0.0 0
M  V30 23 C -0.882 -0.5389 0.0 0
M  V30 24 C -3.3845 8.6663 0.0 0
M  V30 25 O -0.7083 -1.5237 0.0 0
M  V30 26 C 0.2313 -1.8657 0.0 0
M  V30 27 C 0.4049 -2.8505 0.0 0
M  V30 28 C 1.3446 -3.1925 0.0 0
M  V30 29 N 1.6202 -4.1538 0.0 0
M  V30 30 C 2.1736 -2.6333 0.0 0
M  V30 31 C 2.6196 -4.1887 0.0 0
M  V30 32 O 2.9616 -3.249 0.0 0
M  V30 33 C 2.2085 -1.634 0.0 0
M  V30 34 C 3.1788 -5.0177 0.0 0
M  V30 35 C 2.7405 -5.9165 0.0 0
M  V30 36 C 4.1764 -4.948 0.0 0
M  V30 37 C 3.2996 -6.7456 0.0 0
M  V30 38 C 4.7356 -5.777 0.0 0
M  V30 39 C 4.2972 -6.6758 0.0 0
M  V30 END ATOM
M  V30 BEGIN BOND
M  V30 1 2 2 3
M  V30 2 1 3 4
M  V30 3 1 3 5
M  V30 4 1 4 6
M  V30 5 1 5 7
M  V30 6 1 5 8
M  V30 7 2 6 9
M  V30 8 1 6 10
M  V30 9 1 7 11
M  V30 10 1 8 12
M  V30 11 1 9 13
M  V30 12 2 10 14
M  V30 13 2 11 15
M  V30 14 1 11 16
M  V30 15 2 12 17
M  V30 16 1 12 18
M  V30 17 2 13 19
M  V30 18 1 15 20
M  V30 19 2 16 21
M  V30 20 1 19 22
M  V30 21 2 20 23
M  V30 22 1 22 24
M  V30 23 1 23 25
M  V30 24 1 25 26
M  V30 25 1 26 27
M  V30 26 1 27 28
M  V30 27 1 28 29
M  V30 28 2 28 30
M  V30 29 2 29 31
M  V30 30 1 30 32
M  V30 31 1 30 33
M  V30 32 1 31 34
M  V30 33 2 34 35
M  V30 34 1 34 36
M  V30 35 1 35 37
M  V30 36 2 36 38
M  V30 37 2 37 39
M  V30 38 1 14 19
M  V30 39 1 21 23
M  V30 40 1 31 32
M  V30 41 1 38 39
M  V30 END BOND
M  V30 END CTAB
M  END
>  <Molecule ChEMBL ID>
CHEMBL557580

>  <Smiles>
COc1ccc(OC(=O)N(CC(=O)O)Cc2ccc(OCCc3nc(-c4ccccc4)oc3C)cc2)cc1.Cl

>  <IC50_nM>
1410

>  <Assay Description>
Agonist activity at PPAR gamma in human HEK cells by transactivation assay

$$$$
CHEMBL451531
Actelion Java MolfileCreator 2.0

  0  0  0  0  0  0              0 V3000
M  V30 BEGIN CTAB
M  V30 COUNTS 21 22 0 0 0
M  V30 BEGIN ATOM
M  V30 1 Cl 2.598 -2.25 0.0 0
M  V30 2 C 3.8971 -3.0 0.0 0
M  V30 3 C 5.1961 -2.25 0.0 0
M  V30 4 C 3.8971 -4.5 0.0 0
M  V30 5 O 5.1961 -0.75 0.0 0
M  V30 6 C 6.4952 -3.0 0.0 0
M  V30 7 C 5.1961 -5.25 0.0 0
M  V30 8 S 3.8971 0.0 0.0 0
M  V30 9 Cl 7.7942 -2.25 0.0 0
M  V30 10 C 6.4952 -4.5 0.0 0
M  V30 11 Cl 5.1961 -6.75 0.0 0
M  V30 12 O 4.6471 1.299 0.0 0
M  V30 13 O 3.1471 1.299 0.0 0
M  V30 14 C 2.598 -0.75 0.0 0
M  V30 15 C 1.299 0.0 0.0 0
M  V30 16 C 0.0 -0.75 0.0 0
M  V30 17 C -1.299 0.0 0.0 0
M  V30 18 C 0.0 -2.25 0.0 0
M  V30 19 C -2.598 -0.75 0.0 0
M  V30 20 C -1.299 -3.0 0.0 0
M  V30 21 C -2.598 -2.25 0.0 0
M  V30 END ATOM
M  V30 BEGIN BOND
M  V30 1 1 1 2
M  V30 2 2 2 3
M  V30 3 1 2 4
M  V30 4 1 3 5
M  V30 5 1 3 6
M  V30 6 2 4 7
M  V30 7 1 5 8
M  V30 8 1 6 9
M  V30 9 2 6 10
M  V30 10 1 7 11
M  V30 11 2 8 12
M  V30 12 2 8 13
M  V30 13 1 8 14
M  V30 14 2 14 15
M  V30 15 1 15 16
M  V30 16 2 16 17
M  V30 17 1 16 18
M  V30 18 1 17 19
M  V30 19 2 18 20
M  V30 20 2 19 21
M  V30 21 1 7 10
M  V30 22 1 20 21
M  V30 END BOND
M  V30 END CTAB
M  END
>  <Molecule ChEMBL ID>
CHEMBL451531

>  <Smiles>
O=S(=O)(/C=C/c1ccccc1)Oc1c(Cl)cc(Cl)cc1Cl

>  <IC50_nM>
1439

>  <Assay Description>
Displacement of [3H]BRL49653 from PPARgamma ligand binding domain by scintillation proximity assay

$$$$
CHEMBL482993
Actelion Java MolfileCreator 2.0

  0  0  0  0  0  0              0 V3000
M  V30 BEGIN CTAB
M  V30 COUNTS 31 34 0 0 0
M  V30 BEGIN ATOM
M  V30 1 S 4.1222 -2.9781 0.0 0
M  V30 2 C 4.3301 -2.0 0.0 0
M  V30 3 C 3.1276 -3.0826 0.0 0
M  V30 4 C 5.1961 -1.4999 0.0 0
M  V30 5 C 3.4641 -1.5 0.0 0
M  V30 6 C 2.7209 -2.1691 0.0 0
M  V30 7 C 5.1961 -0.4999 0.0 0
M  V30 8 C 6.0621 -1.9999 0.0 0
M  V30 9 C 3.4641 -0.5 0.0 0
M  V30 10 C 4.3301 0.0 0.0 0
M  V30 11 C 6.9282 -1.5 0.0 0 CFG=1
M  V30 12 O 2.598 0.0 0.0 0
M  V30 13 O 6.9282 -0.5 0.0 0
M  V30 14 C 7.7942 -2.0 0.0 0
M  V30 15 C 1.732 -0.5 0.0 0
M  V30 16 C 6.0621 0.0 0.0 0
M  V30 17 O 7.7942 -3.0 0.0 0
M  V30 18 O 8.6602 -1.5 0.0 0
M  V30 19 C 0.866 0.0 0.0 0
M  V30 20 C 0.0 -0.5 0.0 0
M  V30 21 N -0.9135 -0.0932 0.0 0
M  V30 22 C -0.1045 -1.4945 0.0 0
M  V30 23 C -1.5826 -0.8364 0.0 0
M  V30 24 O -1.0826 -1.7024 0.0 0
M  V30 25 C 0.6386 -2.1636 0.0 0
M  V30 26 C -2.5771 -0.7318 0.0 0
M  V30 27 C -2.9839 0.1816 0.0 0
M  V30 28 C -3.1649 -1.5408 0.0 0
M  V30 29 C -3.9784 0.2861 0.0 0
M  V30 30 C -4.1595 -1.4363 0.0 0
M  V30 31 C -4.5662 -0.5228 0.0 0
M  V30 END ATOM
M  V30 BEGIN BOND
M  V30 1 1 1 2
M  V30 2 1 1 3
M  V30 3 2 2 4
M  V30 4 1 2 5
M  V30 5 2 3 6
M  V30 6 1 4 7
M  V30 7 1 4 8
M  V30 8 2 5 9
M  V30 9 2 7 10
M  V30 10 1 8 11
M  V30 11 1 9 12
M  V30 12 1 11 13 CFG=1
M  V30 13 1 11 14
M  V30 14 1 12 15
M  V30 15 1 13 16
M  V30 16 2 14 17
M  V30 17 1 14 18
M  V30 18 1 15 19
M  V30 19 1 19 20
M  V30 20 1 20 21
M  V30 21 2 20 22
M  V30 22 2 21 23
M  V30 23 1 22 24
M  V30 24 1 22 25
M  V30 25 1 23 26
M  V30 26 2 26 27
M  V30 27 1 26 28
M  V30 28 1 27 29
M  V30 29 2 28 30
M  V30 30 2 29 31
M  V30 31 1 5 6
M  V30 32 1 9 10
M  V30 33 1 23 24
M  V30 34 1 30 31
M  V30 END BOND
M  V30 BEGIN COLLECTION
M  V30 MDLV30/STEABS ATOMS=(1 11)
M  V30 END COLLECTION
M  V30 END CTAB
M  END
>  <Molecule ChEMBL ID>
CHEMBL482993

>  <Smiles>
CO[C@H](Cc1ccc(OCCc2nc(-c3ccccc3)oc2C)c2ccsc12)C(=O)O

>  <IC50_nM>
1440

>  <Assay Description>
Displacement of radio labeled 2(S)-(2-benzoyl-phenylamino)-3-{4-[1,1-ditritio-2-(5-methyl-2-phenyl-oxazol-4-yl)-ethoxy]-phenyl}-propionic acid from GST-fused human PPARgamma expressed in Escherichia coli BL21 cells by scintillation proximity assay

$$$$
CHEMBL2338486
Actelion Java MolfileCreator 2.0

  0  0  0  0  0  0              0 V3000
M  V30 BEGIN CTAB
M  V30 COUNTS 30 32 0 0 0
M  V30 BEGIN ATOM
M  V30 1 Cl 2.598 2.25 0.0 0
M  V30 2 C 3.8971 1.5 0.0 0
M  V30 3 C 3.8971 0.0 0.0 0
M  V30 4 C 5.1961 2.25 0.0 0
M  V30 5 S 2.598 -0.75 0.0 0
M  V30 6 C 5.1961 -0.75 0.0 0
M  V30 7 C 6.4951 1.5 0.0 0
M  V30 8 O 1.848 -2.049 0.0 0
M  V30 9 O 3.348 -2.049 0.0 0
M  V30 10 N 1.299 0.0 0.0 0
M  V30 11 C 6.4951 0.0 0.0 0
M  V30 12 Cl 7.7942 2.25 0.0 0
M  V30 13 C 0.0 -0.75 0.0 0
M  V30 14 C -1.299 0.0 0.0 0
M  V30 15 C 0.0 -2.25 0.0 0
M  V30 16 C -2.598 -0.75 0.0 0
M  V30 17 C -1.299 -3.0 0.0 0
M  V30 18 S -3.8971 0.0 0.0 0
M  V30 19 C -2.598 -2.25 0.0 0
M  V30 20 O -3.1471 1.299 0.0 0
M  V30 21 O -4.6471 -1.299 0.0 0
M  V30 22 C -5.1961 0.75 0.0 0
M  V30 23 O -3.8971 -3.0 0.0 0
M  V30 24 C -3.8971 -4.5 0.0 0
M  V30 25 C -5.1961 -5.25 0.0 0
M  V30 26 C -2.598 -5.25 0.0 0
M  V30 27 N -5.1961 -6.75 0.0 0
M  V30 28 C -2.598 -6.75 0.0 0
M  V30 29 C -3.8971 -7.5 0.0 0
M  V30 30 Cl -1.299 -7.5 0.0 0
M  V30 END ATOM
M  V30 BEGIN BOND
M  V30 1 1 1 2
M  V30 2 2 2 3
M  V30 3 1 2 4
M  V30 4 1 3 5
M  V30 5 1 3 6
M  V30 6 2 4 7
M  V30 7 2 5 8
M  V30 8 2 5 9
M  V30 9 1 5 10
M  V30 10 2 6 11
M  V30 11 1 7 12
M  V30 12 1 10 13
M  V30 13 2 13 14
M  V30 14 1 13 15
M  V30 15 1 14 16
M  V30 16 2 15 17
M  V30 17 1 16 18
M  V30 18 2 16 19
M  V30 19 2 18 20
M  V30 20 2 18 21
M  V30 21 1 18 22
M  V30 22 1 19 23
M  V30 23 1 23 24
M  V30 24 2 24 25
M  V30 25 1 24 26
M  V30 26 1 25 27
M  V30 27 2 26 28
M  V30 28 2 27 29
M  V30 29 1 28 30
M  V30 30 1 7 11
M  V30 31 1 17 19
M  V30 32 1 28 29
M  V30 END BOND
M  V30 END CTAB
M  END
>  <Molecule ChEMBL ID>
CHEMBL2338486

>  <Smiles>
CS(=O)(=O)c1cc(NS(=O)(=O)c2ccc(Cl)cc2Cl)ccc1Oc1cncc(Cl)c1

>  <IC50_nM>
1440

>  <Assay Description>
Displacement of [3H]-rosiglitazone from GST-tagged PPARgammaLBD (unknown origin) after 1 hr by scintillation proximity assay

$$$$
CHEMBL373286
Actelion Java MolfileCreator 2.0

  0  0  0  0  0  0              0 V3000
M  V30 BEGIN CTAB
M  V30 COUNTS 37 40 0 0 0
M  V30 BEGIN ATOM
M  V30 1 F 10.8713 -2.451 0.0 0
M  V30 2 C 9.9203 -2.76 0.0 0
M  V30 3 F 10.2293 -3.7111 0.0 0
M  V30 4 F 8.9692 -3.069 0.0 0
M  V30 5 C 9.6113 -1.809 0.0 0
M  V30 6 N 10.199 -1.0 0.0 0
M  V30 7 C 8.6602 -1.5 0.0 0
M  V30 8 O 9.6113 -0.1909 0.0 0
M  V30 9 C 8.6602 -0.5 0.0 0
M  V30 10 C 7.7942 -2.0 0.0 0
M  V30 11 C 7.7942 0.0 0.0 0
M  V30 12 C 6.9282 -1.4999 0.0 0
M  V30 13 C 6.9282 -0.5 0.0 0
M  V30 14 C 7.7942 0.9999 0.0 0
M  V30 15 O 6.0621 0.0 0.0 0
M  V30 16 C 8.6602 1.4999 0.0 0
M  V30 17 C 5.1961 -0.5 0.0 0
M  V30 18 C 8.6602 2.4999 0.0 0
M  V30 19 C 4.3301 0.0 0.0 0
M  V30 20 C 3.4641 -0.5 0.0 0 CFG=2
M  V30 21 C 2.598 0.0 0.0 0
M  V30 22 C 3.4641 -1.5 0.0 0
M  V30 23 C 1.732 -0.5 0.0 0
M  V30 24 O 0.866 0.0 0.0 0
M  V30 25 C 0.0 -0.5 0.0 0
M  V30 26 C 0.0 -1.5 0.0 0
M  V30 27 C -0.866 0.0 0.0 0
M  V30 28 C -0.866 -1.9999 0.0 0
M  V30 29 C 0.7431 -2.1691 0.0 0
M  V30 30 C -1.732 -0.4999 0.0 0
M  V30 31 N -0.6581 -2.9781 0.0 0
M  V30 32 C -1.732 -1.4999 0.0 0
M  V30 33 C 0.3364 -3.0826 0.0 0
M  V30 34 C -1.3272 -3.7212 0.0 0
M  V30 35 C -2.3053 -3.5133 0.0 0
M  V30 36 O -2.6144 -2.5623 0.0 0
M  V30 37 O -2.9745 -4.2565 0.0 0
M  V30 END ATOM
M  V30 BEGIN BOND
M  V30 1 1 1 2
M  V30 2 1 2 3
M  V30 3 1 2 4
M  V30 4 1 2 5
M  V30 5 2 5 6
M  V30 6 1 5 7
M  V30 7 1 6 8
M  V30 8 2 7 9
M  V30 9 1 7 10
M  V30 10 1 9 11
M  V30 11 2 10 12
M  V30 12 2 11 13
M  V30 13 1 11 14
M  V30 14 1 13 15
M  V30 15 1 14 16
M  V30 16 1 15 17
M  V30 17 1 16 18
M  V30 18 1 17 19
M  V30 19 1 19 20
M  V30 20 1 20 21
M  V30 21 1 20 22 CFG=1
M  V30 22 1 21 23
M  V30 23 1 23 24
M  V30 24 1 24 25
M  V30 25 2 25 26
M  V30 26 1 25 27
M  V30 27 1 26 28
M  V30 28 1 26 29
M  V30 29 2 27 30
M  V30 30 1 28 31
M  V30 31 2 28 32
M  V30 32 2 29 33
M  V30 33 1 31 34
M  V30 34 1 34 35
M  V30 35 2 35 36
M  V30 36 1 35 37
M  V30 37 1 8 9
M  V30 38 1 12 13
M  V30 39 1 30 32
M  V30 40 1 31 33
M  V30 END BOND
M  V30 BEGIN COLLECTION
M  V30 MDLV30/STERAC1 ATOMS=(1 20)
M  V30 END COLLECTION
M  V30 END CTAB
M  END
>  <Molecule ChEMBL ID>
CHEMBL373286

>  <Smiles>
CCCc1c(OCCC(C)CCOc2cccc3c2ccn3CC(=O)O)ccc2c(C(F)(F)F)noc12

>  <IC50_nM>
1452

>  <Assay Description>
Displacement of [3H]rosiglitazone from human PPAR gamma by SPA assay

$$$$
CHEMBL2338485
Actelion Java MolfileCreator 2.0

  0  0  0  0  0  0              0 V3000
M  V30 BEGIN CTAB
M  V30 COUNTS 27 29 0 0 0
M  V30 BEGIN ATOM
M  V30 1 Cl 2.598 2.25 0.0 0
M  V30 2 C 3.8971 1.5 0.0 0
M  V30 3 C 3.8971 0.0 0.0 0
M  V30 4 C 5.1961 2.25 0.0 0
M  V30 5 S 2.598 -0.75 0.0 0
M  V30 6 C 5.1961 -0.75 0.0 0
M  V30 7 C 6.4952 1.5 0.0 0
M  V30 8 O 1.848 -2.049 0.0 0
M  V30 9 O 3.348 -2.049 0.0 0
M  V30 10 N 1.299 0.0 0.0 0
M  V30 11 C 6.4952 0.0 0.0 0
M  V30 12 Cl 7.7942 2.25 0.0 0
M  V30 13 C 0.0 -0.75 0.0 0
M  V30 14 C -1.299 0.0 0.0 0
M  V30 15 C 0.0 -2.25 0.0 0
M  V30 16 C -2.598 -0.75 0.0 0
M  V30 17 C -1.299 -3.0 0.0 0
M  V30 18 C -2.598 -2.25 0.0 0
M  V30 19 C -3.8971 0.0 0.0 0
M  V30 20 O -3.8971 -3.0 0.0 0
M  V30 21 C -3.8971 -4.5 0.0 0
M  V30 22 C -5.1961 -5.25 0.0 0
M  V30 23 C -2.598 -5.25 0.0 0
M  V30 24 N -5.1961 -6.75 0.0 0
M  V30 25 C -2.598 -6.75 0.0 0
M  V30 26 C -3.8971 -7.5 0.0 0
M  V30 27 Cl -1.299 -7.5 0.0 0
M  V30 END ATOM
M  V30 BEGIN BOND
M  V30 1 1 1 2
M  V30 2 2 2 3
M  V30 3 1 2 4
M  V30 4 1 3 5
M  V30 5 1 3 6
M  V30 6 2 4 7
M  V30 7 2 5 8
M  V30 8 2 5 9
M  V30 9 1 5 10
M  V30 10 2 6 11
M  V30 11 1 7 12
M  V30 12 1 10 13
M  V30 13 2 13 14
M  V30 14 1 13 15
M  V30 15 1 14 16
M  V30 16 2 15 17
M  V30 17 2 16 18
M  V30 18 1 16 19
M  V30 19 1 18 20
M  V30 20 1 20 21
M  V30 21 2 21 22
M  V30 22 1 21 23
M  V30 23 1 22 24
M  V30 24 2 23 25
M  V30 25 2 24 26
M  V30 26 1 25 27
M  V30 27 1 7 11
M  V30 28 1 17 18
M  V30 29 1 25 26
M  V30 END BOND
M  V30 END CTAB
M  END
>  <Molecule ChEMBL ID>
CHEMBL2338485

>  <Smiles>
Cc1cc(NS(=O)(=O)c2ccc(Cl)cc2Cl)ccc1Oc1cncc(Cl)c1

>  <IC50_nM>
1470

>  <Assay Description>
Displacement of [3H]-rosiglitazone from GST-tagged PPARgammaLBD (unknown origin) after 1 hr by scintillation proximity assay

$$$$
CHEMBL474548
Actelion Java MolfileCreator 2.0

  0  0  0  0  0  0              0 V3000
M  V30 BEGIN CTAB
M  V30 COUNTS 36 40 0 0 0
M  V30 BEGIN ATOM
M  V30 1 O 8.0301 0.3006 0.0 0
M  V30 2 C 7.8222 1.2787 0.0 0
M  V30 3 O 8.5653 1.9478 0.0 0
M  V30 4 C 6.8711 1.5877 0.0 0
M  V30 5 N 6.5621 2.5388 0.0 0
M  V30 6 C 6.0621 1.0 0.0 0
M  V30 7 N 5.5621 2.5388 0.0 0
M  V30 8 C 7.1499 3.3478 0.0 0
M  V30 9 N 5.2531 1.5877 0.0 0
M  V30 10 C 6.0621 0.0 0.0 0
M  V30 11 C 8.1444 3.2433 0.0 0
M  V30 12 C 6.7432 4.2614 0.0 0
M  V30 13 C 5.1961 -0.5 0.0 0
M  V30 14 C 8.7322 4.0523 0.0 0
M  V30 15 C 7.331 5.0704 0.0 0
M  V30 16 C 4.3301 0.0 0.0 0
M  V30 17 C 5.1961 -1.4999 0.0 0
M  V30 18 C 8.3255 4.9658 0.0 0
M  V30 19 C 3.4641 -0.5 0.0 0
M  V30 20 C 4.3301 -1.9999 0.0 0
M  V30 21 O 2.598 0.0 0.0 0
M  V30 22 C 3.4641 -1.4999 0.0 0
M  V30 23 C 1.732 -0.5 0.0 0
M  V30 24 C 0.866 0.0 0.0 0
M  V30 25 C 0.0 -0.5 0.0 0
M  V30 26 N -0.9135 -0.0932 0.0 0
M  V30 27 C -0.1045 -1.4945 0.0 0
M  V30 28 C -1.5826 -0.8364 0.0 0
M  V30 29 O -1.0826 -1.7024 0.0 0
M  V30 30 C 0.6386 -2.1636 0.0 0
M  V30 31 C -2.5771 -0.7318 0.0 0
M  V30 32 C -2.9839 0.1816 0.0 0
M  V30 33 C -3.1649 -1.5408 0.0 0
M  V30 34 C -3.9784 0.2861 0.0 0
M  V30 35 C -4.1595 -1.4363 0.0 0
M  V30 36 C -4.5662 -0.5228 0.0 0
M  V30 END ATOM
M  V30 BEGIN BOND
M  V30 1 2 1 2
M  V30 2 1 2 3
M  V30 3 1 2 4
M  V30 4 1 4 5
M  V30 5 2 4 6
M  V30 6 1 5 7
M  V30 7 1 5 8
M  V30 8 1 6 9
M  V30 9 1 6 10
M  V30 10 2 8 11
M  V30 11 1 8 12
M  V30 12 1 10 13
M  V30 13 1 11 14
M  V30 14 2 12 15
M  V30 15 2 13 16
M  V30 16 1 13 17
M  V30 17 2 14 18
M  V30 18 1 16 19
M  V30 19 2 17 20
M  V30 20 1 19 21
M  V30 21 2 19 22
M  V30 22 1 21 23
M  V30 23 1 23 24
M  V30 24 1 24 25
M  V30 25 1 25 26
M  V30 26 2 25 27
M  V30 27 2 26 28
M  V30 28 1 27 29
M  V30 29 1 27 30
M  V30 30 1 28 31
M  V30 31 2 31 32
M  V30 32 1 31 33
M  V30 33 1 32 34
M  V30 34 2 33 35
M  V30 35 2 34 36
M  V30 36 2 7 9
M  V30 37 1 15 18
M  V30 38 1 20 22
M  V30 39 1 28 29
M  V30 40 1 35 36
M  V30 END BOND
M  V30 END CTAB
M  END
>  <Molecule ChEMBL ID>
CHEMBL474548

>  <Smiles>
Cc1oc(-c2ccccc2)nc1CCOc1cccc(Cc2nnn(-c3ccccc3)c2C(=O)O)c1

>  <IC50_nM>
1480

>  <Assay Description>
Binding affinity to PPARgamma by fluorescence polarization assay

$$$$
CHEMBL321815
Actelion Java MolfileCreator 2.0

  0  0  0  0  0  0              0 V3000
M  V30 BEGIN CTAB
M  V30 COUNTS 33 36 0 0 0
M  V30 BEGIN ATOM
M  V30 1 F 7.9913 2.4393 0.0 0
M  V30 2 C 7.7834 1.4612 0.0 0
M  V30 3 F 8.7616 1.2533 0.0 0
M  V30 4 F 7.5755 0.483 0.0 0
M  V30 5 C 6.8053 1.6691 0.0 0
M  V30 6 N 6.3985 2.5826 0.0 0
M  V30 7 C 6.0621 0.9999 0.0 0
M  V30 8 O 5.404 2.4781 0.0 0
M  V30 9 C 5.1961 1.4999 0.0 0
M  V30 10 C 6.0621 0.0 0.0 0
M  V30 11 C 4.3301 0.9999 0.0 0
M  V30 12 C 5.1961 -0.4999 0.0 0
M  V30 13 C 4.3301 0.0 0.0 0
M  V30 14 C 3.4641 1.5 0.0 0
M  V30 15 O 3.4641 -0.5 0.0 0
M  V30 16 C 3.4641 2.5 0.0 0
M  V30 17 C 2.598 0.0 0.0 0
M  V30 18 C 2.598 3.0 0.0 0
M  V30 19 C 1.732 -0.5 0.0 0
M  V30 20 O 0.866 0.0 0.0 0
M  V30 21 C 0.0 -0.5 0.0 0
M  V30 22 C 0.0 -1.5 0.0 0
M  V30 23 C -0.866 0.0 0.0 0
M  V30 24 C -0.866 -1.9999 0.0 0
M  V30 25 C 0.7431 -2.1691 0.0 0
M  V30 26 C -1.732 -0.4999 0.0 0
M  V30 27 N -0.6581 -2.9781 0.0 0
M  V30 28 C -1.732 -1.4999 0.0 0
M  V30 29 C 0.3364 -3.0826 0.0 0
M  V30 30 C -1.3272 -3.7212 0.0 0
M  V30 31 C -2.3053 -3.5133 0.0 0
M  V30 32 O -2.6144 -2.5623 0.0 0
M  V30 33 O -2.9745 -4.2565 0.0 0
M  V30 END ATOM
M  V30 BEGIN BOND
M  V30 1 1 1 2
M  V30 2 1 2 3
M  V30 3 1 2 4
M  V30 4 1 2 5
M  V30 5 2 5 6
M  V30 6 1 5 7
M  V30 7 1 6 8
M  V30 8 2 7 9
M  V30 9 1 7 10
M  V30 10 1 9 11
M  V30 11 2 10 12
M  V30 12 2 11 13
M  V30 13 1 11 14
M  V30 14 1 13 15
M  V30 15 1 14 16
M  V30 16 1 15 17
M  V30 17 1 16 18
M  V30 18 1 17 19
M  V30 19 1 19 20
M  V30 20 1 20 21
M  V30 21 2 21 22
M  V30 22 1 21 23
M  V30 23 1 22 24
M  V30 24 1 22 25
M  V30 25 2 23 26
M  V30 26 1 24 27
M  V30 27 2 24 28
M  V30 28 2 25 29
M  V30 29 1 27 30
M  V30 30 1 30 31
M  V30 31 2 31 32
M  V30 32 1 31 33
M  V30 33 1 8 9
M  V30 34 1 12 13
M  V30 35 1 26 28
M  V30 36 1 27 29
M  V30 END BOND
M  V30 END CTAB
M  END
>  <Molecule ChEMBL ID>
CHEMBL321815

>  <Smiles>
CCCc1c(OCCOc2cccc3c2ccn3CC(=O)O)ccc2c(C(F)(F)F)noc12

>  <IC50_nM>
1495

>  <Assay Description>
Displacement of [3H]rosiglitazone from human PPAR gamma by SPA assay

$$$$
CHEMBL2037083
Actelion Java MolfileCreator 2.0

  0  0  0  0  0  0              0 V3000
M  V30 BEGIN CTAB
M  V30 COUNTS 30 33 0 0 0
M  V30 BEGIN ATOM
M  V30 1 O 4.3301 0.0 0.0 0
M  V30 2 C 4.3301 0.9999 0.0 0
M  V30 3 O 5.1961 1.4999 0.0 0
M  V30 4 C 3.4641 1.4999 0.0 0 CFG=1
M  V30 5 O 3.4641 2.4999 0.0 0
M  V30 6 C 2.598 1.0 0.0 0
M  V30 7 C 2.598 3.0 0.0 0
M  V30 8 C 1.732 1.5 0.0 0
M  V30 9 C 2.598 4.0 0.0 0
M  V30 10 C 0.866 1.0 0.0 0
M  V30 11 C 1.732 2.5 0.0 0
M  V30 12 C 0.0 1.5 0.0 0
M  V30 13 C 0.6581 0.0218 0.0 0
M  V30 14 C 0.866 3.0 0.0 0
M  V30 15 N -0.7431 0.8308 0.0 0
M  V30 16 C 0.0 2.5 0.0 0
M  V30 17 C -0.3364 -0.0826 0.0 0
M  V30 18 C -1.7212 1.0387 0.0 0
M  V30 19 C -2.3904 0.2956 0.0 0
M  V30 20 N -3.3849 0.4001 0.0 0
M  V30 21 C -2.1825 -0.6825 0.0 0
M  V30 22 C -3.7916 -0.5133 0.0 0
M  V30 23 O -3.0485 -1.1825 0.0 0
M  V30 24 C -1.2689 -1.0892 0.0 0
M  V30 25 C -4.7698 -0.7212 0.0 0
M  V30 26 C -5.4389 0.0218 0.0 0
M  V30 27 C -5.0788 -1.6723 0.0 0
M  V30 28 C -6.4171 -0.186 0.0 0
M  V30 29 C -6.0569 -1.8802 0.0 0
M  V30 30 C -6.7261 -1.1371 0.0 0
M  V30 END ATOM
M  V30 BEGIN BOND
M  V30 1 2 1 2
M  V30 2 1 2 3
M  V30 3 1 2 4
M  V30 4 1 4 5 CFG=3
M  V30 5 1 4 6
M  V30 6 1 5 7
M  V30 7 1 6 8
M  V30 8 1 7 9
M  V30 9 2 8 10
M  V30 10 1 8 11
M  V30 11 1 10 12
M  V30 12 1 10 13
M  V30 13 2 11 14
M  V30 14 1 12 15
M  V30 15 2 12 16
M  V30 16 2 13 17
M  V30 17 1 15 18
M  V30 18 1 18 19
M  V30 19 1 19 20
M  V30 20 2 19 21
M  V30 21 2 20 22
M  V30 22 1 21 23
M  V30 23 1 21 24
M  V30 24 1 22 25
M  V30 25 2 25 26
M  V30 26 1 25 27
M  V30 27 1 26 28
M  V30 28 2 27 29
M  V30 29 2 28 30
M  V30 30 1 14 16
M  V30 31 1 15 17
M  V30 32 1 22 23
M  V30 33 1 29 30
M  V30 END BOND
M  V30 BEGIN COLLECTION
M  V30 MDLV30/STEABS ATOMS=(1 4)
M  V30 END COLLECTION
M  V30 END CTAB
M  END
>  <Molecule ChEMBL ID>
CHEMBL2037083

>  <Smiles>
CCO[C@@H](Cc1cccc2c1ccn2Cc1nc(-c2ccccc2)oc1C)C(=O)O

>  <IC50_nM>
1499.68

>  <Assay Description>
Agonist activity at PPARgamma

$$$$
CHEMBL3598141
Actelion Java MolfileCreator 2.0

  0  0  0  0  0  0              0 V3000
M  V30 BEGIN CTAB
M  V30 COUNTS 31 34 0 0 0
M  V30 BEGIN ATOM
M  V30 1 Cl -0.866 0.9999 0.0 0
M  V30 2 C 0.0 1.4999 0.0 0
M  V30 3 C 0.866 0.9999 0.0 0
M  V30 4 C 0.0 2.4999 0.0 0
M  V30 5 C 1.732 1.5 0.0 0
M  V30 6 C 0.866 0.0 0.0 0
M  V30 7 C 0.866 3.0 0.0 0
M  V30 8 C 1.732 2.4999 0.0 0
M  V30 9 C 2.598 1.0 0.0 0
M  V30 10 O 1.732 -0.5 0.0 0
M  V30 11 C 0.0 -0.5 0.0 0
M  V30 12 F 3.098 1.866 0.0 0
M  V30 13 F 3.4641 0.5 0.0 0
M  V30 14 F 2.098 0.1339 0.0 0
M  V30 15 N -0.9135 -0.0932 0.0 0
M  V30 16 N -0.1045 -1.4945 0.0 0
M  V30 17 C -1.5826 -0.8364 0.0 0
M  V30 18 C -1.0826 -1.7024 0.0 0
M  V30 19 C 0.5646 -2.2376 0.0 0
M  V30 20 C -2.5771 -0.7318 0.0 0
M  V30 21 C -1.3916 -2.6534 0.0 0
M  V30 22 C 0.2555 -3.1887 0.0 0
M  V30 23 C -2.9839 0.1816 0.0 0
M  V30 24 C -3.1649 -1.5408 0.0 0
M  V30 25 C -0.7225 -3.3966 0.0 0
M  V30 26 C -3.9784 0.2861 0.0 0
M  V30 27 C -4.1595 -1.4363 0.0 0
M  V30 28 C -4.5662 -0.5228 0.0 0
M  V30 29 C -5.5607 -0.4182 0.0 0
M  V30 30 O -5.9675 0.4952 0.0 0
M  V30 31 O -6.1485 -1.2273 0.0 0
M  V30 END ATOM
M  V30 BEGIN BOND
M  V30 1 1 1 2
M  V30 2 2 2 3
M  V30 3 1 2 4
M  V30 4 1 3 5
M  V30 5 1 3 6
M  V30 6 2 4 7
M  V30 7 2 5 8
M  V30 8 1 5 9
M  V30 9 2 6 10
M  V30 10 1 6 11
M  V30 11 1 9 12
M  V30 12 1 9 13
M  V30 13 1 9 14
M  V30 14 2 11 15
M  V30 15 1 11 16
M  V30 16 1 15 17
M  V30 17 1 16 18
M  V30 18 1 16 19
M  V30 19 1 17 20
M  V30 20 1 18 21
M  V30 21 2 19 22
M  V30 22 2 20 23
M  V30 23 1 20 24
M  V30 24 2 21 25
M  V30 25 1 23 26
M  V30 26 2 24 27
M  V30 27 2 26 28
M  V30 28 1 28 29
M  V30 29 2 29 30
M  V30 30 1 29 31
M  V30 31 1 7 8
M  V30 32 2 17 18
M  V30 33 1 22 25
M  V30 34 1 27 28
M  V30 END BOND
M  V30 END CTAB
M  END
>  <Molecule ChEMBL ID>
CHEMBL3598141

>  <Smiles>
O=C(O)c1ccc(-c2nc(C(=O)c3c(Cl)cccc3C(F)(F)F)n3ccccc23)cc1

>  <IC50_nM>
1500

>  <Assay Description>
Displacement of fluormone PPARgamma green from GST-tagged human PPARgamma-LBD after 2 hrs by fluorescence polarization assay

$$$$
CHEMBL456792
Actelion Java MolfileCreator 2.0

  0  0  0  0  0  0              0 V3000
M  V30 BEGIN CTAB
M  V30 COUNTS 33 35 0 0 0
M  V30 BEGIN ATOM
M  V30 1 Cl 9.5262 0.0 0.0 0
M  V30 2 C 8.6602 -0.5 0.0 0
M  V30 3 N 7.7942 0.0 0.0 0
M  V30 4 C 8.6602 -1.5 0.0 0
M  V30 5 C 6.9282 -0.5 0.0 0
M  V30 6 C 7.7942 -2.0 0.0 0
M  V30 7 S 6.0621 0.0 0.0 0
M  V30 8 N 6.9282 -1.5 0.0 0
M  V30 9 N 7.7942 -3.0 0.0 0
M  V30 10 C 5.1961 -0.5 0.0 0 CFG=2
M  V30 11 C 8.6602 -3.5 0.0 0
M  V30 12 C 5.1961 -1.5 0.0 0
M  V30 13 C 4.3301 0.0 0.0 0
M  V30 14 C 8.6602 -4.5 0.0 0
M  V30 15 C 9.5262 -3.0 0.0 0
M  V30 16 O 4.3301 -1.9999 0.0 0
M  V30 17 O 6.0621 -2.0 0.0 0
M  V30 18 C 3.4641 -0.5 0.0 0
M  V30 19 C 9.5262 -5.0 0.0 0
M  V30 20 C 10.3923 -3.5 0.0 0
M  V30 21 C 2.598 0.0 0.0 0
M  V30 22 C 10.3923 -4.5 0.0 0
M  V30 23 C 1.732 -0.5 0.0 0
M  V30 24 C 11.2583 -5.0 0.0 0
M  V30 25 C 0.866 0.0 0.0 0
M  V30 26 C 11.2583 -6.0 0.0 0
M  V30 27 C 12.1243 -4.5 0.0 0
M  V30 28 C 0.0 -0.5 0.0 0
M  V30 29 C 12.1243 -6.5 0.0 0
M  V30 30 C 12.9903 -5.0 0.0 0
M  V30 31 C 12.9903 -6.0 0.0 0
M  V30 32 C 13.8564 -6.5 0.0 0
M  V30 33 N 14.7224 -7.0 0.0 0
M  V30 END ATOM
M  V30 BEGIN BOND
M  V30 1 1 1 2
M  V30 2 2 2 3
M  V30 3 1 2 4
M  V30 4 1 3 5
M  V30 5 2 4 6
M  V30 6 1 5 7
M  V30 7 2 5 8
M  V30 8 1 6 9
M  V30 9 1 10 7 CFG=3
M  V30 10 1 9 11
M  V30 11 1 10 12
M  V30 12 1 10 13
M  V30 13 2 11 14
M  V30 14 1 11 15
M  V30 15 2 12 16
M  V30 16 1 12 17
M  V30 17 1 13 18
M  V30 18 1 14 19
M  V30 19 2 15 20
M  V30 20 1 18 21
M  V30 21 2 19 22
M  V30 22 1 21 23
M  V30 23 1 22 24
M  V30 24 1 23 25
M  V30 25 2 24 26
M  V30 26 1 24 27
M  V30 27 1 25 28
M  V30 28 1 26 29
M  V30 29 2 27 30
M  V30 30 2 29 31
M  V30 31 1 31 32
M  V30 32 3 32 33
M  V30 33 1 6 8
M  V30 34 1 20 22
M  V30 35 1 30 31
M  V30 END BOND
M  V30 BEGIN COLLECTION
M  V30 MDLV30/STERAC1 ATOMS=(1 10)
M  V30 END COLLECTION
M  V30 END CTAB
M  END
>  <Molecule ChEMBL ID>
CHEMBL456792

>  <Smiles>
CCCCCCC(Sc1nc(Cl)cc(Nc2ccc(-c3ccc(C#N)cc3)cc2)n1)C(=O)O

>  <IC50_nM>
1500

>  <Assay Description>
Activation of human PPARgamma ligand binding domain expressed in COS7 cells by luciferase reporter gene assay

$$$$
CHEMBL4864404
Actelion Java MolfileCreator 2.0

  0  0  0  0  0  0              0 V3000
M  V30 BEGIN CTAB
M  V30 COUNTS 34 37 0 0 0
M  V30 BEGIN ATOM
M  V30 1 S 12.9904 -0.75 0.0 0
M  V30 2 O 12.2404 -2.049 0.0 0
M  V30 3 O 13.7404 -2.049 0.0 0
M  V30 4 N 11.6913 0.0 0.0 0
M  V30 5 C 14.2894 0.0 0.0 0
M  V30 6 C 10.3923 -0.75 0.0 0
M  V30 7 C 15.5884 -0.75 0.0 0
M  V30 8 C 14.2894 1.5 0.0 0
M  V30 9 C 9.0932 0.0 0.0 0
M  V30 10 N 15.5884 -2.25 0.0 0
M  V30 11 C 16.8875 0.0 0.0 0
M  V30 12 C 15.5884 2.25 0.0 0
M  V30 13 S 7.7942 -0.75 0.0 0
M  V30 14 C 16.8875 -3.0 0.0 0
M  V30 15 C 18.1865 -0.75 0.0 0
M  V30 16 C 16.8875 1.5 0.0 0
M  V30 17 S 6.4952 0.0 0.0 0
M  V30 18 C 18.1865 -2.25 0.0 0
M  V30 19 C 5.1961 -0.75 0.0 0
M  V30 20 C 3.8971 0.0 0.0 0
M  V30 21 N 2.598 -0.75 0.0 0
M  V30 22 S 1.299 0.0 0.0 0
M  V30 23 O 2.049 1.299 0.0 0
M  V30 24 O 0.549 1.299 0.0 0
M  V30 25 C 0.0 -0.75 0.0 0
M  V30 26 C -1.299 0.0 0.0 0
M  V30 27 C 0.0 -2.25 0.0 0
M  V30 28 N -1.299 1.5 0.0 0
M  V30 29 C -2.598 -0.75 0.0 0
M  V30 30 C -1.299 -3.0 0.0 0
M  V30 31 C -2.598 2.25 0.0 0
M  V30 32 C -3.8971 0.0 0.0 0
M  V30 33 C -2.598 -2.25 0.0 0
M  V30 34 C -3.8971 1.5 0.0 0
M  V30 END ATOM
M  V30 BEGIN BOND
M  V30 1 2 1 2
M  V30 2 2 1 3
M  V30 3 1 1 4
M  V30 4 1 1 5
M  V30 5 1 4 6
M  V30 6 1 5 7
M  V30 7 2 5 8
M  V30 8 1 6 9
M  V30 9 2 7 10
M  V30 10 1 7 11
M  V30 11 1 8 12
M  V30 12 1 9 13
M  V30 13 1 10 14
M  V30 14 2 11 15
M  V30 15 1 11 16
M  V30 16 1 13 17
M  V30 17 2 14 18
M  V30 18 1 17 19
M  V30 19 1 19 20
M  V30 20 1 20 21
M  V30 21 1 21 22
M  V30 22 2 22 23
M  V30 23 2 22 24
M  V30 24 1 22 25
M  V30 25 1 25 26
M  V30 26 2 25 27
M  V30 27 2 26 28
M  V30 28 1 26 29
M  V30 29 1 27 30
M  V30 30 1 28 31
M  V30 31 2 29 32
M  V30 32 1 29 33
M  V30 33 2 31 34
M  V30 34 2 12 16
M  V30 35 1 15 18
M  V30 36 2 30 33
M  V30 37 1 32 34
M  V30 END BOND
M  V30 END CTAB
M  END
>  <Molecule ChEMBL ID>
CHEMBL4864404

>  <Smiles>
O=S(=O)(NCCSSCCNS(=O)(=O)c1cccc2cccnc12)c1cccc2cccnc12

>  <IC50_nM>
1500

>  <Assay Description>
Antagonist activity at PPARgamma (unknown origin) expressed in human LNCaP cells assessed as suppression of pioglitazone-induced PPAR response element driven firefly luciferase activity measured after 24 hrs by dual luciferase reporter assay

$$$$
CHEMBL213782
Actelion Java MolfileCreator 2.0

  0  0  0  0  0  0              0 V3000
M  V30 BEGIN CTAB
M  V30 COUNTS 30 33 0 0 0
M  V30 BEGIN ATOM
M  V30 1 O 4.3301 0.0 0.0 0
M  V30 2 C 4.3301 0.9999 0.0 0
M  V30 3 O 5.1961 1.4999 0.0 0
M  V30 4 C 3.4641 1.4999 0.0 0 CFG=1
M  V30 5 O 3.4641 2.4999 0.0 0
M  V30 6 C 2.598 1.0 0.0 0
M  V30 7 C 2.598 3.0 0.0 0
M  V30 8 C 1.732 1.5 0.0 0
M  V30 9 C 2.598 4.0 0.0 0
M  V30 10 C 0.866 1.0 0.0 0
M  V30 11 C 1.732 2.5 0.0 0
M  V30 12 C 0.0 1.5 0.0 0
M  V30 13 C 0.6581 0.0218 0.0 0
M  V30 14 C 0.866 3.0 0.0 0
M  V30 15 N -0.7431 0.8308 0.0 0
M  V30 16 C 0.0 2.5 0.0 0
M  V30 17 C -0.3364 -0.0826 0.0 0
M  V30 18 C -1.7212 1.0387 0.0 0
M  V30 19 C -2.3904 0.2956 0.0 0
M  V30 20 N -3.3849 0.4001 0.0 0
M  V30 21 C -2.1825 -0.6825 0.0 0
M  V30 22 C -3.7916 -0.5133 0.0 0
M  V30 23 O -3.0485 -1.1825 0.0 0
M  V30 24 C -1.2689 -1.0892 0.0 0
M  V30 25 C -4.7698 -0.7212 0.0 0
M  V30 26 C -5.4389 0.0218 0.0 0
M  V30 27 C -5.0788 -1.6723 0.0 0
M  V30 28 C -6.4171 -0.186 0.0 0
M  V30 29 C -6.0569 -1.8802 0.0 0
M  V30 30 C -6.7261 -1.1371 0.0 0
M  V30 END ATOM
M  V30 BEGIN BOND
M  V30 1 2 1 2
M  V30 2 1 2 3
M  V30 3 1 2 4
M  V30 4 1 4 5 CFG=3
M  V30 5 1 4 6
M  V30 6 1 5 7
M  V30 7 1 6 8
M  V30 8 1 7 9
M  V30 9 2 8 10
M  V30 10 1 8 11
M  V30 11 1 10 12
M  V30 12 1 10 13
M  V30 13 2 11 14
M  V30 14 1 12 15
M  V30 15 2 12 16
M  V30 16 2 13 17
M  V30 17 1 15 18
M  V30 18 1 18 19
M  V30 19 1 19 20
M  V30 20 2 19 21
M  V30 21 2 20 22
M  V30 22 1 21 23
M  V30 23 1 21 24
M  V30 24 1 22 25
M  V30 25 2 25 26
M  V30 26 1 25 27
M  V30 27 1 26 28
M  V30 28 2 27 29
M  V30 29 2 28 30
M  V30 30 1 14 16
M  V30 31 1 15 17
M  V30 32 1 22 23
M  V30 33 1 29 30
M  V30 END BOND
M  V30 BEGIN COLLECTION
M  V30 MDLV30/STERAC1 ATOMS=(1 4)
M  V30 END COLLECTION
M  V30 END CTAB
M  END
>  <Molecule ChEMBL ID>
CHEMBL213782

>  <Smiles>
CCOC(Cc1cccc2c1ccn2Cc1nc(-c2ccccc2)oc1C)C(=O)O

>  <IC50_nM>
1500

>  <Assay Description>
Binding affinity to PPARgamma by radio ligand binding assay

$$$$
CHEMBL3598141
Actelion Java MolfileCreator 2.0

  0  0  0  0  0  0              0 V3000
M  V30 BEGIN CTAB
M  V30 COUNTS 31 34 0 0 0
M  V30 BEGIN ATOM
M  V30 1 Cl -0.866 0.9999 0.0 0
M  V30 2 C 0.0 1.4999 0.0 0
M  V30 3 C 0.866 0.9999 0.0 0
M  V30 4 C 0.0 2.4999 0.0 0
M  V30 5 C 1.732 1.5 0.0 0
M  V30 6 C 0.866 0.0 0.0 0
M  V30 7 C 0.866 3.0 0.0 0
M  V30 8 C 1.732 2.4999 0.0 0
M  V30 9 C 2.598 1.0 0.0 0
M  V30 10 O 1.732 -0.5 0.0 0
M  V30 11 C 0.0 -0.5 0.0 0
M  V30 12 F 3.098 1.866 0.0 0
M  V30 13 F 3.4641 0.5 0.0 0
M  V30 14 F 2.098 0.1339 0.0 0
M  V30 15 N -0.9135 -0.0932 0.0 0
M  V30 16 N -0.1045 -1.4945 0.0 0
M  V30 17 C -1.5826 -0.8364 0.0 0
M  V30 18 C -1.0826 -1.7024 0.0 0
M  V30 19 C 0.5646 -2.2376 0.0 0
M  V30 20 C -2.5771 -0.7318 0.0 0
M  V30 21 C -1.3916 -2.6534 0.0 0
M  V30 22 C 0.2555 -3.1887 0.0 0
M  V30 23 C -2.9839 0.1816 0.0 0
M  V30 24 C -3.1649 -1.5408 0.0 0
M  V30 25 C -0.7225 -3.3966 0.0 0
M  V30 26 C -3.9784 0.2861 0.0 0
M  V30 27 C -4.1595 -1.4363 0.0 0
M  V30 28 C -4.5662 -0.5228 0.0 0
M  V30 29 C -5.5607 -0.4182 0.0 0
M  V30 30 O -5.9675 0.4952 0.0 0
M  V30 31 O -6.1485 -1.2273 0.0 0
M  V30 END ATOM
M  V30 BEGIN BOND
M  V30 1 1 1 2
M  V30 2 2 2 3
M  V30 3 1 2 4
M  V30 4 1 3 5
M  V30 5 1 3 6
M  V30 6 2 4 7
M  V30 7 2 5 8
M  V30 8 1 5 9
M  V30 9 2 6 10
M  V30 10 1 6 11
M  V30 11 1 9 12
M  V30 12 1 9 13
M  V30 13 1 9 14
M  V30 14 2 11 15
M  V30 15 1 11 16
M  V30 16 1 15 17
M  V30 17 1 16 18
M  V30 18 1 16 19
M  V30 19 1 17 20
M  V30 20 1 18 21
M  V30 21 2 19 22
M  V30 22 2 20 23
M  V30 23 1 20 24
M  V30 24 2 21 25
M  V30 25 1 23 26
M  V30 26 2 24 27
M  V30 27 2 26 28
M  V30 28 1 28 29
M  V30 29 2 29 30
M  V30 30 1 29 31
M  V30 31 1 7 8
M  V30 32 2 17 18
M  V30 33 1 22 25
M  V30 34 1 27 28
M  V30 END BOND
M  V30 END CTAB
M  END
>  <Molecule ChEMBL ID>
CHEMBL3598141

>  <Smiles>
O=C(O)c1ccc(-c2nc(C(=O)c3c(Cl)cccc3C(F)(F)F)n3ccccc23)cc1

>  <IC50_nM>
1500

>  <Assay Description>
Inverse agonist activity at human PPARgamma

$$$$
CHEMBL3398436
Actelion Java MolfileCreator 2.0

  0  0  0  0  0  0              0 V3000
M  V30 BEGIN CTAB
M  V30 COUNTS 35 38 0 0 0
M  V30 BEGIN ATOM
M  V30 1 O 9.4121 -2.7205 0.0 0
M  V30 2 C 8.4176 -2.6159 0.0 0
M  V30 3 O 7.8298 -3.4249 0.0 0
M  V30 4 N 8.0108 -1.7024 0.0 0
M  V30 5 C 6.8353 -3.3204 0.0 0
M  V30 6 C 8.5108 -0.8364 0.0 0
M  V30 7 C 7.0327 -1.4945 0.0 0
M  V30 8 C 6.2475 -4.1294 0.0 0
M  V30 9 C 7.8417 -0.0932 0.0 0 CFG=1
M  V30 10 C 6.9282 -0.5 0.0 0 CFG=2
M  V30 11 C 8.0496 0.8848 0.0 0
M  V30 12 C 6.0621 0.0 0.0 0
M  V30 13 O 9.0007 1.1939 0.0 0
M  V30 14 O 7.3065 1.554 0.0 0
M  V30 15 C 5.1961 -0.5 0.0 0
M  V30 16 C 4.3301 0.0 0.0 0
M  V30 17 C 5.1961 -1.4999 0.0 0
M  V30 18 C 3.4641 -0.5 0.0 0
M  V30 19 C 4.3301 -1.9999 0.0 0
M  V30 20 O 2.598 0.0 0.0 0
M  V30 21 C 3.4641 -1.4999 0.0 0
M  V30 22 C 1.732 -0.5 0.0 0
M  V30 23 C 0.866 0.0 0.0 0
M  V30 24 C 0.0 -0.5 0.0 0
M  V30 25 N -0.9135 -0.0932 0.0 0
M  V30 26 C -0.1045 -1.4945 0.0 0
M  V30 27 C -1.5826 -0.8364 0.0 0
M  V30 28 O -1.0826 -1.7024 0.0 0
M  V30 29 C 0.6386 -2.1636 0.0 0
M  V30 30 C -2.5771 -0.7318 0.0 0
M  V30 31 C -2.9839 0.1816 0.0 0
M  V30 32 C -3.1649 -1.5408 0.0 0
M  V30 33 C -3.9784 0.2861 0.0 0
M  V30 34 C -4.1595 -1.4363 0.0 0
M  V30 35 C -4.5662 -0.5228 0.0 0
M  V30 END ATOM
M  V30 BEGIN BOND
M  V30 1 2 1 2
M  V30 2 1 2 3
M  V30 3 1 2 4
M  V30 4 1 3 5
M  V30 5 1 4 6
M  V30 6 1 4 7
M  V30 7 1 5 8
M  V30 8 1 6 9
M  V30 9 1 7 10
M  V30 10 1 9 11 CFG=1
M  V30 11 1 10 12 CFG=1
M  V30 12 2 11 13
M  V30 13 1 11 14
M  V30 14 1 12 15
M  V30 15 2 15 16
M  V30 16 1 15 17
M  V30 17 1 16 18
M  V30 18 2 17 19
M  V30 19 1 18 20
M  V30 20 2 18 21
M  V30 21 1 20 22
M  V30 22 1 22 23
M  V30 23 1 23 24
M  V30 24 1 24 25
M  V30 25 2 24 26
M  V30 26 2 25 27
M  V30 27 1 26 28
M  V30 28 1 26 29
M  V30 29 1 27 30
M  V30 30 2 30 31
M  V30 31 1 30 32
M  V30 32 1 31 33
M  V30 33 2 32 34
M  V30 34 2 33 35
M  V30 35 1 9 10
M  V30 36 1 19 21
M  V30 37 1 27 28
M  V30 38 1 34 35
M  V30 END BOND
M  V30 BEGIN COLLECTION
M  V30 MDLV30/STEABS ATOMS=(2 9 10)
M  V30 END COLLECTION
M  V30 END CTAB
M  END
>  <Molecule ChEMBL ID>
CHEMBL3398436

>  <Smiles>
CCOC(=O)N1C[C@@H](Cc2cccc(OCCc3nc(-c4ccccc4)oc3C)c2)[C@@H](C(=O)O)C1

>  <IC50_nM>
1510

>  <Assay Description>
Binding affinity to PPARgamma (unknown origin) using fluorescein-tagged dual PPARalpha/gamma activator by homogeneous fluorescence polarization binding assay

$$$$
CHEMBL400024
Actelion Java MolfileCreator 2.0

  0  0  0  0  0  0              0 V3000
M  V30 BEGIN CTAB
M  V30 COUNTS 31 33 0 0 0
M  V30 BEGIN ATOM
M  V30 1 S 5.2531 1.5877 0.0 0
M  V30 2 C 6.0621 1.0 0.0 0
M  V30 3 C 5.5621 2.5388 0.0 0
M  V30 4 N 6.8711 1.5877 0.0 0
M  V30 5 C 6.0621 0.0 0.0 0
M  V30 6 C 6.5621 2.5388 0.0 0
M  V30 7 C 5.1961 -0.5 0.0 0
M  V30 8 C 6.9282 -0.4999 0.0 0
M  V30 9 O 4.3301 0.0 0.0 0
M  V30 10 C 5.1961 -1.4999 0.0 0
M  V30 11 C 6.9282 -1.4999 0.0 0
M  V30 12 C 3.4641 -0.5 0.0 0 CFG=1
M  V30 13 C 6.0621 -1.9999 0.0 0
M  V30 14 C 7.7942 -1.9999 0.0 0
M  V30 15 C 2.598 0.0 0.0 0
M  V30 16 C 3.4641 -1.5 0.0 0
M  V30 17 C 8.6602 -1.4999 0.0 0
M  V30 18 C 1.732 -0.5 0.0 0
M  V30 19 O 0.866 0.0 0.0 0
M  V30 20 C 0.0 -0.5 0.0 0
M  V30 21 C -0.866 0.0 0.0 0
M  V30 22 C 0.0 -1.4999 0.0 0
M  V30 23 C -1.732 -0.4999 0.0 0
M  V30 24 C -0.866 -1.9999 0.0 0
M  V30 25 C -1.732 -1.4999 0.0 0
M  V30 26 C -2.598 0.0 0.0 0
M  V30 27 C -2.598 -1.9999 0.0 0
M  V30 28 C -2.598 -2.9999 0.0 0
M  V30 29 C -3.4641 -3.4999 0.0 0
M  V30 30 O -4.3301 -2.9999 0.0 0
M  V30 31 O -3.4641 -4.4999 0.0 0
M  V30 END ATOM
M  V30 BEGIN BOND
M  V30 1 1 1 2
M  V30 2 1 1 3
M  V30 3 2 2 4
M  V30 4 1 2 5
M  V30 5 2 3 6
M  V30 6 2 5 7
M  V30 7 1 5 8
M  V30 8 1 7 9
M  V30 9 1 7 10
M  V30 10 2 8 11
M  V30 11 1 9 12
M  V30 12 2 10 13
M  V30 13 1 11 14
M  V30 14 1 12 15
M  V30 15 1 12 16 CFG=3
M  V30 16 1 14 17
M  V30 17 1 15 18
M  V30 18 1 18 19
M  V30 19 1 19 20
M  V30 20 2 20 21
M  V30 21 1 20 22
M  V30 22 1 21 23
M  V30 23 2 22 24
M  V30 24 2 23 25
M  V30 25 1 23 26
M  V30 26 1 25 27
M  V30 27 1 27 28
M  V30 28 1 28 29
M  V30 29 2 29 30
M  V30 30 1 29 31
M  V30 31 1 4 6
M  V30 32 1 11 13
M  V30 33 1 24 25
M  V30 END BOND
M  V30 BEGIN COLLECTION
M  V30 MDLV30/STEABS ATOMS=(1 12)
M  V30 END COLLECTION
M  V30 END CTAB
M  END
>  <Molecule ChEMBL ID>
CHEMBL400024

>  <Smiles>
CCc1ccc(O[C@H](C)CCOc2ccc(CCC(=O)O)c(C)c2)c(-c2nccs2)c1

>  <IC50_nM>
1530

>  <Assay Description>
Displacement of [3H]2-methyl-2-(4-{3-[porpyl-(5-pyridin-2yl-thiophene-2-sulfonyl)-amino]-propyl}-phenoxy)-propionic acid from human PPARgamma

$$$$
CHEMBL3398450
Actelion Java MolfileCreator 2.0

  0  0  0  0  0  0              0 V3000
M  V30 BEGIN CTAB
M  V30 COUNTS 40 44 0 0 0
M  V30 BEGIN ATOM
M  V30 1 F 6.1136 -7.5772 0.0 0
M  V30 2 C 5.2 -7.9839 0.0 0
M  V30 3 F 5.6068 -8.8975 0.0 0
M  V30 4 F 4.2865 -8.3907 0.0 0
M  V30 5 C 4.7933 -7.0704 0.0 0
M  V30 6 N 5.3811 -6.2614 0.0 0
M  V30 7 C 3.7988 -6.9658 0.0 0
M  V30 8 C 4.9743 -5.3478 0.0 0
M  V30 9 C 3.392 -6.0523 0.0 0
M  V30 10 N 3.9798 -5.2433 0.0 0
M  V30 11 N 5.5621 -4.5388 0.0 0
M  V30 12 C 6.5621 -4.5388 0.0 0
M  V30 13 C 5.2531 -3.5877 0.0 0
M  V30 14 C 6.8711 -3.5877 0.0 0 CFG=2
M  V30 15 C 6.0621 -3.0 0.0 0 CFG=1
M  V30 16 C 7.8222 -3.2787 0.0 0
M  V30 17 C 6.0621 -2.0 0.0 0
M  V30 18 O 8.5653 -3.9478 0.0 0
M  V30 19 O 8.0301 -2.3006 0.0 0
M  V30 20 C 5.1961 -1.4999 0.0 0
M  V30 21 C 5.1961 -0.5 0.0 0
M  V30 22 C 4.3301 -1.9999 0.0 0
M  V30 23 C 4.3301 0.0 0.0 0
M  V30 24 C 3.4641 -1.5 0.0 0
M  V30 25 C 3.4641 -0.5 0.0 0
M  V30 26 O 2.598 0.0 0.0 0
M  V30 27 C 1.732 -0.5 0.0 0
M  V30 28 C 0.866 0.0 0.0 0
M  V30 29 C 0.0 -0.5 0.0 0
M  V30 30 N -0.9135 -0.0932 0.0 0
M  V30 31 C -0.1045 -1.4945 0.0 0
M  V30 32 C -1.5826 -0.8364 0.0 0
M  V30 33 O -1.0826 -1.7024 0.0 0
M  V30 34 C 0.6386 -2.1636 0.0 0
M  V30 35 C -2.5771 -0.7318 0.0 0
M  V30 36 C -2.9839 0.1816 0.0 0
M  V30 37 C -3.1649 -1.5408 0.0 0
M  V30 38 C -3.9784 0.2861 0.0 0
M  V30 39 C -4.1595 -1.4363 0.0 0
M  V30 40 C -4.5662 -0.5228 0.0 0
M  V30 END ATOM
M  V30 BEGIN BOND
M  V30 1 1 1 2
M  V30 2 1 2 3
M  V30 3 1 2 4
M  V30 4 1 2 5
M  V30 5 2 5 6
M  V30 6 1 5 7
M  V30 7 1 6 8
M  V30 8 2 7 9
M  V30 9 2 8 10
M  V30 10 1 8 11
M  V30 11 1 11 12
M  V30 12 1 11 13
M  V30 13 1 12 14
M  V30 14 1 13 15
M  V30 15 1 14 16 CFG=3
M  V30 16 1 15 17 CFG=3
M  V30 17 2 16 18
M  V30 18 1 16 19
M  V30 19 1 17 20
M  V30 20 2 20 21
M  V30 21 1 20 22
M  V30 22 1 21 23
M  V30 23 2 22 24
M  V30 24 2 23 25
M  V30 25 1 25 26
M  V30 26 1 26 27
M  V30 27 1 27 28
M  V30 28 1 28 29
M  V30 29 1 29 30
M  V30 30 2 29 31
M  V30 31 2 30 32
M  V30 32 1 31 33
M  V30 33 1 31 34
M  V30 34 1 32 35
M  V30 35 2 35 36
M  V30 36 1 35 37
M  V30 37 1 36 38
M  V30 38 2 37 39
M  V30 39 2 38 40
M  V30 40 1 9 10
M  V30 41 1 14 15
M  V30 42 1 24 25
M  V30 43 1 32 33
M  V30 44 1 39 40
M  V30 END BOND
M  V30 BEGIN COLLECTION
M  V30 MDLV30/STEABS ATOMS=(2 14 15)
M  V30 END COLLECTION
M  V30 END CTAB
M  END
>  <Molecule ChEMBL ID>
CHEMBL3398450

>  <Smiles>
Cc1oc(-c2ccccc2)nc1CCOc1ccc(C[C@H]2CN(c3nccc(C(F)(F)F)n3)C[C@H]2C(=O)O)cc1

>  <IC50_nM>
1530

>  <Assay Description>
Binding affinity to PPARgamma (unknown origin) using fluorescein-tagged dual PPARalpha/gamma activator by homogeneous fluorescence polarization binding assay

$$$$
CHEMBL484329
Actelion Java MolfileCreator 2.0

  0  0  0  0  0  0              0 V3000
M  V30 BEGIN CTAB
M  V30 COUNTS 32 35 0 0 0
M  V30 BEGIN ATOM
M  V30 1 O 6.9282 -4.5 0.0 0
M  V30 2 C 6.9282 -3.5 0.0 0
M  V30 3 O 7.7942 -3.0 0.0 0
M  V30 4 C 6.0621 -3.0 0.0 0 CFG=2
M  V30 5 O 5.1961 -3.5 0.0 0
M  V30 6 C 6.0621 -1.9999 0.0 0
M  V30 7 C 5.1961 -4.4999 0.0 0
M  V30 8 C 5.1961 -1.4999 0.0 0
M  V30 9 C 5.1961 -0.5 0.0 0
M  V30 10 C 4.3301 -1.9999 0.0 0
M  V30 11 C 4.3301 0.0 0.0 0
M  V30 12 C 6.0621 0.0 0.0 0
M  V30 13 C 3.4641 -1.5 0.0 0
M  V30 14 C 3.4641 -0.5 0.0 0
M  V30 15 C 4.3301 1.0 0.0 0
M  V30 16 C 6.0621 1.0 0.0 0
M  V30 17 O 2.598 0.0 0.0 0
M  V30 18 C 5.1961 1.5 0.0 0
M  V30 19 C 1.732 -0.5 0.0 0
M  V30 20 C 0.866 0.0 0.0 0
M  V30 21 C 0.0 -0.5 0.0 0
M  V30 22 N -0.9135 -0.0932 0.0 0
M  V30 23 C -0.1045 -1.4945 0.0 0
M  V30 24 C -1.5826 -0.8364 0.0 0
M  V30 25 O -1.0826 -1.7024 0.0 0
M  V30 26 C 0.6386 -2.1636 0.0 0
M  V30 27 C -2.5771 -0.7318 0.0 0
M  V30 28 C -2.9839 0.1816 0.0 0
M  V30 29 C -3.1649 -1.5408 0.0 0
M  V30 30 C -3.9784 0.2861 0.0 0
M  V30 31 C -4.1595 -1.4363 0.0 0
M  V30 32 C -4.5662 -0.5228 0.0 0
M  V30 END ATOM
M  V30 BEGIN BOND
M  V30 1 2 1 2
M  V30 2 1 2 3
M  V30 3 1 2 4
M  V30 4 1 4 5 CFG=3
M  V30 5 1 4 6
M  V30 6 1 5 7
M  V30 7 1 6 8
M  V30 8 1 8 9
M  V30 9 2 8 10
M  V30 10 1 9 11
M  V30 11 2 9 12
M  V30 12 1 10 13
M  V30 13 1 11 14
M  V30 14 2 11 15
M  V30 15 1 12 16
M  V30 16 1 14 17
M  V30 17 1 15 18
M  V30 18 1 17 19
M  V30 19 1 19 20
M  V30 20 1 20 21
M  V30 21 1 21 22
M  V30 22 2 21 23
M  V30 23 2 22 24
M  V30 24 1 23 25
M  V30 25 1 23 26
M  V30 26 1 24 27
M  V30 27 2 27 28
M  V30 28 1 27 29
M  V30 29 1 28 30
M  V30 30 2 29 31
M  V30 31 2 30 32
M  V30 32 2 13 14
M  V30 33 2 16 18
M  V30 34 1 24 25
M  V30 35 1 31 32
M  V30 END BOND
M  V30 BEGIN COLLECTION
M  V30 MDLV30/STEABS ATOMS=(1 4)
M  V30 END COLLECTION
M  V30 END CTAB
M  END
>  <Molecule ChEMBL ID>
CHEMBL484329

>  <Smiles>
CO[C@H](Cc1ccc(OCCc2nc(-c3ccccc3)oc2C)c2ccccc12)C(=O)O

>  <IC50_nM>
1570

>  <Assay Description>
Displacement of radio labeled 2(S)-(2-benzoyl-phenylamino)-3-{4-[1,1-ditritio-2-(5-methyl-2-phenyl-oxazol-4-yl)-ethoxy]-phenyl}-propionic acid from GST-fused human PPARgamma expressed in Escherichia coli BL21 cells by scintillation proximity assay

$$$$
CHEMBL192152
Actelion Java MolfileCreator 2.0

  0  0  0  0  0  0              0 V3000
M  V30 BEGIN CTAB
M  V30 COUNTS 26 27 0 0 0
M  V30 BEGIN ATOM
M  V30 1 F 11.1109 -3.6765 0.0 0
M  V30 2 C 9.6843 -4.1401 0.0 0
M  V30 3 F 10.1478 -5.5667 0.0 0
M  V30 4 F 8.2577 -4.6036 0.0 0
M  V30 5 C 9.2208 -2.7135 0.0 0
M  V30 6 N 10.1025 -1.5 0.0 0
M  V30 7 C 7.7942 -2.25 0.0 0
M  V30 8 O 9.2208 -0.2864 0.0 0
M  V30 9 C 7.7942 -0.75 0.0 0
M  V30 10 C 6.4952 -3.0 0.0 0
M  V30 11 C 6.4952 0.0 0.0 0
M  V30 12 C 5.1961 -2.25 0.0 0
M  V30 13 C 5.1961 -0.75 0.0 0
M  V30 14 C 6.4952 1.5 0.0 0
M  V30 15 C 3.8971 -3.0 0.0 0
M  V30 16 O 3.8971 0.0 0.0 0
M  V30 17 C 7.7942 2.25 0.0 0
M  V30 18 C 2.598 -2.25 0.0 0
M  V30 19 C 3.8971 1.5 0.0 0
M  V30 20 C 7.7942 3.75 0.0 0
M  V30 21 C 1.299 -3.0 0.0 0
M  V30 22 C 2.598 2.25 0.0 0
M  V30 23 C 4.647 2.799 0.0 0
M  V30 24 C 5.397 1.4999 0.0 0
M  V30 25 O 1.299 1.5 0.0 0
M  V30 26 O 2.598 3.75 0.0 0
M  V30 END ATOM
M  V30 BEGIN BOND
M  V30 1 1 1 2
M  V30 2 1 2 3
M  V30 3 1 2 4
M  V30 4 1 2 5
M  V30 5 2 5 6
M  V30 6 1 5 7
M  V30 7 1 6 8
M  V30 8 2 7 9
M  V30 9 1 7 10
M  V30 10 1 9 11
M  V30 11 2 10 12
M  V30 12 2 11 13
M  V30 13 1 11 14
M  V30 14 1 12 15
M  V30 15 1 13 16
M  V30 16 1 14 17
M  V30 17 1 15 18
M  V30 18 1 16 19
M  V30 19 1 17 20
M  V30 20 1 18 21
M  V30 21 1 19 22
M  V30 22 1 19 23
M  V30 23 1 19 24
M  V30 24 2 22 25
M  V30 25 1 22 26
M  V30 26 1 8 9
M  V30 27 1 12 13
M  V30 END BOND
M  V30 END CTAB
M  END
>  <Molecule ChEMBL ID>
CHEMBL192152

>  <Smiles>
CCCc1cc2c(C(F)(F)F)noc2c(CCC)c1OC(C)(C)C(=O)O

>  <IC50_nM>
1580

>  <Assay Description>
Inhibition of human Peroxisome proliferator activated receptor gamma binding

$$$$
CHEMBL202515
Actelion Java MolfileCreator 2.0

  0  0  0  0  0  0              0 V3000
M  V30 BEGIN CTAB
M  V30 COUNTS 36 40 0 0 0
M  V30 BEGIN ATOM
M  V30 1 O 9.5262 -2.9999 0.0 0
M  V30 2 C 8.6602 -3.5 0.0 0
M  V30 3 C 7.7942 -2.9999 0.0 0
M  V30 4 C 8.6602 -4.5 0.0 0
M  V30 5 C 7.7942 -1.9999 0.0 0
M  V30 6 C 6.9282 -3.4999 0.0 0
M  V30 7 C 7.7942 -4.9999 0.0 0
M  V30 8 C 9.5262 -5.0 0.0 0
M  V30 9 C 6.9282 -1.4999 0.0 0
M  V30 10 C 6.0621 -2.9999 0.0 0
M  V30 11 C 7.7942 -5.9999 0.0 0
M  V30 12 C 9.5262 -6.0 0.0 0
M  V30 13 C 6.0621 -1.9999 0.0 0
M  V30 14 C 6.9282 -0.5 0.0 0
M  V30 15 C 8.6602 -6.4999 0.0 0
M  V30 16 C 5.1961 -1.4999 0.0 0
M  V30 17 C 6.0621 0.0 0.0 0
M  V30 18 C 5.1961 -0.5 0.0 0
M  V30 19 O 4.3301 0.0 0.0 0
M  V30 20 C 3.4641 -0.5 0.0 0
M  V30 21 C 2.598 0.0 0.0 0
M  V30 22 C 1.732 -0.5 0.0 0
M  V30 23 O 0.866 0.0 0.0 0
M  V30 24 C 0.0 -0.5 0.0 0
M  V30 25 C -0.866 0.0 0.0 0
M  V30 26 C 0.0 -1.5 0.0 0
M  V30 27 C -1.732 -0.4999 0.0 0
M  V30 28 C -0.866 -1.9999 0.0 0
M  V30 29 N -2.6831 -0.1909 0.0 0
M  V30 30 C -1.732 -1.4999 0.0 0
M  V30 31 C -3.2708 -0.9999 0.0 0
M  V30 32 C -2.9921 0.76 0.0 0
M  V30 33 C -2.6831 -1.809 0.0 0
M  V30 34 C -2.3229 1.5032 0.0 0
M  V30 35 O -1.3448 1.2953 0.0 0
M  V30 36 O -2.632 2.4542 0.0 0
M  V30 END ATOM
M  V30 BEGIN BOND
M  V30 1 2 1 2
M  V30 2 1 2 3
M  V30 3 1 2 4
M  V30 4 2 3 5
M  V30 5 1 3 6
M  V30 6 2 4 7
M  V30 7 1 4 8
M  V30 8 1 5 9
M  V30 9 2 6 10
M  V30 10 1 7 11
M  V30 11 2 8 12
M  V30 12 1 9 13
M  V30 13 2 9 14
M  V30 14 2 11 15
M  V30 15 2 13 16
M  V30 16 1 14 17
M  V30 17 1 16 18
M  V30 18 1 18 19
M  V30 19 1 19 20
M  V30 20 1 20 21
M  V30 21 1 21 22
M  V30 22 1 22 23
M  V30 23 1 23 24
M  V30 24 2 24 25
M  V30 25 1 24 26
M  V30 26 1 25 27
M  V30 27 2 26 28
M  V30 28 1 27 29
M  V30 29 2 27 30
M  V30 30 1 29 31
M  V30 31 1 29 32
M  V30 32 1 30 33
M  V30 33 1 32 34
M  V30 34 2 34 35
M  V30 35 1 34 36
M  V30 36 1 10 13
M  V30 37 1 12 15
M  V30 38 2 17 18
M  V30 39 1 28 30
M  V30 40 2 31 33
M  V30 END BOND
M  V30 END CTAB
M  END
>  <Molecule ChEMBL ID>
CHEMBL202515

>  <Smiles>
O=C(O)Cn1ccc2ccc(OCCCOc3ccc4cc(C(=O)c5ccccc5)ccc4c3)cc21

>  <IC50_nM>
1580

>  <Assay Description>
Displacement of [3H]rosiglitazone from human PPAR gamma by SPA assay

$$$$
CHEMBL202515
Actelion Java MolfileCreator 2.0

  0  0  0  0  0  0              0 V3000
M  V30 BEGIN CTAB
M  V30 COUNTS 36 40 0 0 0
M  V30 BEGIN ATOM
M  V30 1 O 9.5262 -2.9999 0.0 0
M  V30 2 C 8.6602 -3.5 0.0 0
M  V30 3 C 7.7942 -2.9999 0.0 0
M  V30 4 C 8.6602 -4.5 0.0 0
M  V30 5 C 7.7942 -1.9999 0.0 0
M  V30 6 C 6.9282 -3.4999 0.0 0
M  V30 7 C 7.7942 -4.9999 0.0 0
M  V30 8 C 9.5262 -5.0 0.0 0
M  V30 9 C 6.9282 -1.4999 0.0 0
M  V30 10 C 6.0621 -2.9999 0.0 0
M  V30 11 C 7.7942 -5.9999 0.0 0
M  V30 12 C 9.5262 -6.0 0.0 0
M  V30 13 C 6.0621 -1.9999 0.0 0
M  V30 14 C 6.9282 -0.5 0.0 0
M  V30 15 C 8.6602 -6.4999 0.0 0
M  V30 16 C 5.1961 -1.4999 0.0 0
M  V30 17 C 6.0621 0.0 0.0 0
M  V30 18 C 5.1961 -0.5 0.0 0
M  V30 19 O 4.3301 0.0 0.0 0
M  V30 20 C 3.4641 -0.5 0.0 0
M  V30 21 C 2.598 0.0 0.0 0
M  V30 22 C 1.732 -0.5 0.0 0
M  V30 23 O 0.866 0.0 0.0 0
M  V30 24 C 0.0 -0.5 0.0 0
M  V30 25 C -0.866 0.0 0.0 0
M  V30 26 C 0.0 -1.5 0.0 0
M  V30 27 C -1.732 -0.4999 0.0 0
M  V30 28 C -0.866 -1.9999 0.0 0
M  V30 29 N -2.6831 -0.1909 0.0 0
M  V30 30 C -1.732 -1.4999 0.0 0
M  V30 31 C -3.2708 -0.9999 0.0 0
M  V30 32 C -2.9921 0.76 0.0 0
M  V30 33 C -2.6831 -1.809 0.0 0
M  V30 34 C -2.3229 1.5032 0.0 0
M  V30 35 O -1.3448 1.2953 0.0 0
M  V30 36 O -2.632 2.4542 0.0 0
M  V30 END ATOM
M  V30 BEGIN BOND
M  V30 1 2 1 2
M  V30 2 1 2 3
M  V30 3 1 2 4
M  V30 4 2 3 5
M  V30 5 1 3 6
M  V30 6 2 4 7
M  V30 7 1 4 8
M  V30 8 1 5 9
M  V30 9 2 6 10
M  V30 10 1 7 11
M  V30 11 2 8 12
M  V30 12 1 9 13
M  V30 13 2 9 14
M  V30 14 2 11 15
M  V30 15 2 13 16
M  V30 16 1 14 17
M  V30 17 1 16 18
M  V30 18 1 18 19
M  V30 19 1 19 20
M  V30 20 1 20 21
M  V30 21 1 21 22
M  V30 22 1 22 23
M  V30 23 1 23 24
M  V30 24 2 24 25
M  V30 25 1 24 26
M  V30 26 1 25 27
M  V30 27 2 26 28
M  V30 28 1 27 29
M  V30 29 2 27 30
M  V30 30 1 29 31
M  V30 31 1 29 32
M  V30 32 1 30 33
M  V30 33 1 32 34
M  V30 34 2 34 35
M  V30 35 1 34 36
M  V30 36 1 10 13
M  V30 37 1 12 15
M  V30 38 2 17 18
M  V30 39 1 28 30
M  V30 40 2 31 33
M  V30 END BOND
M  V30 END CTAB
M  END
>  <Molecule ChEMBL ID>
CHEMBL202515

>  <Smiles>
O=C(O)Cn1ccc2ccc(OCCCOc3ccc4cc(C(=O)c5ccccc5)ccc4c3)cc21

>  <IC50_nM>
1581.25

>  <Assay Description>
Agonist activity at PPARgamma

$$$$
CHEMBL498172
Actelion Java MolfileCreator 2.0

  0  0  0  0  0  0              0 V3000
M  V30 BEGIN CTAB
M  V30 COUNTS 32 35 0 0 0
M  V30 BEGIN ATOM
M  V30 1 Cl 8.0425 10.2715 0.0 0
M  V30 2 C 7.579 8.8449 0.0 0
M  V30 3 C 8.5827 7.7302 0.0 0
M  V30 4 C 6.1118 8.533 0.0 0
M  V30 5 C 8.1192 6.3036 0.0 0
M  V30 6 C 5.6482 7.1065 0.0 0
M  V30 7 C 6.6519 5.9917 0.0 0
M  V30 8 C 8.8692 5.0046 0.0 0
M  V30 9 N 6.4951 4.5 0.0 0
M  V30 10 C 7.8655 3.8898 0.0 0
M  V30 11 S 5.1961 3.75 0.0 0
M  V30 12 O 4.4461 5.049 0.0 0
M  V30 13 O 3.6961 3.7499 0.0 0
M  V30 14 C 5.1961 2.25 0.0 0
M  V30 15 C 3.8971 1.5 0.0 0
M  V30 16 C 6.4951 1.5 0.0 0
M  V30 17 C 3.8971 0.0 0.0 0
M  V30 18 C 6.4951 0.0 0.0 0
M  V30 19 C 2.598 -0.75 0.0 0
M  V30 20 C 5.1961 -0.75 0.0 0
M  V30 21 O 2.598 -2.25 0.0 0
M  V30 22 N 1.299 0.0 0.0 0
M  V30 23 C 0.0 -0.75 0.0 0
M  V30 24 C -1.299 0.0 0.0 0
M  V30 25 C 0.0 -2.25 0.0 0
M  V30 26 C -1.299 1.5 0.0 0
M  V30 27 C -2.598 -0.75 0.0 0
M  V30 28 C -1.299 -3.0 0.0 0
M  V30 29 O 0.0 2.25 0.0 0
M  V30 30 O -2.598 2.25 0.0 0
M  V30 31 C -2.598 -2.25 0.0 0
M  V30 32 C -3.8971 -3.0 0.0 0
M  V30 END ATOM
M  V30 BEGIN BOND
M  V30 1 1 1 2
M  V30 2 2 2 3
M  V30 3 1 2 4
M  V30 4 1 3 5
M  V30 5 2 4 6
M  V30 6 2 5 7
M  V30 7 1 5 8
M  V30 8 1 7 9
M  V30 9 2 8 10
M  V30 10 1 9 11
M  V30 11 2 11 12
M  V30 12 2 11 13
M  V30 13 1 11 14
M  V30 14 2 14 15
M  V30 15 1 14 16
M  V30 16 1 15 17
M  V30 17 2 16 18
M  V30 18 1 17 19
M  V30 19 2 17 20
M  V30 20 2 19 21
M  V30 21 1 19 22
M  V30 22 1 22 23
M  V30 23 2 23 24
M  V30 24 1 23 25
M  V30 25 1 24 26
M  V30 26 1 24 27
M  V30 27 2 25 28
M  V30 28 2 26 29
M  V30 29 1 26 30
M  V30 30 2 27 31
M  V30 31 1 31 32
M  V30 32 1 6 7
M  V30 33 1 9 10
M  V30 34 1 18 20
M  V30 35 1 28 31
M  V30 END BOND
M  V30 END CTAB
M  END
>  <Molecule ChEMBL ID>
CHEMBL498172

>  <Smiles>
Cc1ccc(NC(=O)c2cccc(S(=O)(=O)n3ccc4cc(Cl)ccc43)c2)c(C(=O)O)c1

>  <IC50_nM>
1584.89

>  <Assay Description>
Agonist activity at PPARgamma

$$$$
CHEMBL498172
Actelion Java MolfileCreator 2.0

  0  0  0  0  0  0              0 V3000
M  V30 BEGIN CTAB
M  V30 COUNTS 32 35 0 0 0
M  V30 BEGIN ATOM
M  V30 1 Cl 8.0425 10.2715 0.0 0
M  V30 2 C 7.579 8.8449 0.0 0
M  V30 3 C 8.5827 7.7302 0.0 0
M  V30 4 C 6.1118 8.533 0.0 0
M  V30 5 C 8.1192 6.3036 0.0 0
M  V30 6 C 5.6482 7.1065 0.0 0
M  V30 7 C 6.6519 5.9917 0.0 0
M  V30 8 C 8.8692 5.0046 0.0 0
M  V30 9 N 6.4951 4.5 0.0 0
M  V30 10 C 7.8655 3.8898 0.0 0
M  V30 11 S 5.1961 3.75 0.0 0
M  V30 12 O 4.4461 5.049 0.0 0
M  V30 13 O 3.6961 3.7499 0.0 0
M  V30 14 C 5.1961 2.25 0.0 0
M  V30 15 C 3.8971 1.5 0.0 0
M  V30 16 C 6.4951 1.5 0.0 0
M  V30 17 C 3.8971 0.0 0.0 0
M  V30 18 C 6.4951 0.0 0.0 0
M  V30 19 C 2.598 -0.75 0.0 0
M  V30 20 C 5.1961 -0.75 0.0 0
M  V30 21 O 2.598 -2.25 0.0 0
M  V30 22 N 1.299 0.0 0.0 0
M  V30 23 C 0.0 -0.75 0.0 0
M  V30 24 C -1.299 0.0 0.0 0
M  V30 25 C 0.0 -2.25 0.0 0
M  V30 26 C -1.299 1.5 0.0 0
M  V30 27 C -2.598 -0.75 0.0 0
M  V30 28 C -1.299 -3.0 0.0 0
M  V30 29 O 0.0 2.25 0.0 0
M  V30 30 O -2.598 2.25 0.0 0
M  V30 31 C -2.598 -2.25 0.0 0
M  V30 32 C -3.8971 -3.0 0.0 0
M  V30 END ATOM
M  V30 BEGIN BOND
M  V30 1 1 1 2
M  V30 2 2 2 3
M  V30 3 1 2 4
M  V30 4 1 3 5
M  V30 5 2 4 6
M  V30 6 2 5 7
M  V30 7 1 5 8
M  V30 8 1 7 9
M  V30 9 2 8 10
M  V30 10 1 9 11
M  V30 11 2 11 12
M  V30 12 2 11 13
M  V30 13 1 11 14
M  V30 14 2 14 15
M  V30 15 1 14 16
M  V30 16 1 15 17
M  V30 17 2 16 18
M  V30 18 1 17 19
M  V30 19 2 17 20
M  V30 20 2 19 21
M  V30 21 1 19 22
M  V30 22 1 22 23
M  V30 23 2 23 24
M  V30 24 1 23 25
M  V30 25 1 24 26
M  V30 26 1 24 27
M  V30 27 2 25 28
M  V30 28 2 26 29
M  V30 29 1 26 30
M  V30 30 2 27 31
M  V30 31 1 31 32
M  V30 32 1 6 7
M  V30 33 1 9 10
M  V30 34 1 18 20
M  V30 35 1 28 31
M  V30 END BOND
M  V30 END CTAB
M  END
>  <Molecule ChEMBL ID>
CHEMBL498172

>  <Smiles>
Cc1ccc(NC(=O)c2cccc(S(=O)(=O)n3ccc4cc(Cl)ccc43)c2)c(C(=O)O)c1

>  <IC50_nM>
1584.89

>  <Assay Description>
Displacement of radiolabeled ligand from human PPARgamma by competition-binding assay

$$$$
CHEMBL525366
Actelion Java MolfileCreator 2.0

  0  0  0  0  0  0              0 V3000
M  V30 BEGIN CTAB
M  V30 COUNTS 33 36 0 0 0
M  V30 BEGIN ATOM
M  V30 1 S 5.1961 3.75 0.0 0
M  V30 2 O 4.4461 5.049 0.0 0
M  V30 3 O 3.6961 3.7499 0.0 0
M  V30 4 N 6.4951 4.5 0.0 0
M  V30 5 C 5.1961 2.25 0.0 0
M  V30 6 C 7.8655 3.8898 0.0 0
M  V30 7 C 6.6519 5.9917 0.0 0
M  V30 8 C 3.8971 1.5 0.0 0
M  V30 9 C 6.4951 1.5 0.0 0
M  V30 10 C 8.8692 5.0046 0.0 0
M  V30 11 C 8.329 2.4633 0.0 0
M  V30 12 C 8.1192 6.3036 0.0 0
M  V30 13 C 3.8971 0.0 0.0 0
M  V30 14 C 6.4951 0.0 0.0 0
M  V30 15 C 10.3364 4.6927 0.0 0
M  V30 16 C 9.7962 2.1514 0.0 0
M  V30 17 C 2.598 -0.75 0.0 0
M  V30 18 C 5.1961 -0.75 0.0 0
M  V30 19 O 11.3401 5.8074 0.0 0
M  V30 20 C 10.7999 3.2661 0.0 0
M  V30 21 O 2.598 -2.25 0.0 0
M  V30 22 N 1.299 0.0 0.0 0
M  V30 23 C 10.8766 7.234 0.0 0
M  V30 24 C 0.0 -0.75 0.0 0
M  V30 25 C -1.299 0.0 0.0 0
M  V30 26 C 0.0 -2.25 0.0 0
M  V30 27 C -1.299 1.5 0.0 0
M  V30 28 C -2.598 -0.75 0.0 0
M  V30 29 C -1.299 -3.0 0.0 0
M  V30 30 O 0.0 2.25 0.0 0
M  V30 31 O -2.598 2.25 0.0 0
M  V30 32 C -2.598 -2.25 0.0 0
M  V30 33 C -3.8971 -3.0 0.0 0
M  V30 END ATOM
M  V30 BEGIN BOND
M  V30 1 2 1 2
M  V30 2 2 1 3
M  V30 3 1 1 4
M  V30 4 1 1 5
M  V30 5 1 4 6
M  V30 6 1 4 7
M  V30 7 2 5 8
M  V30 8 1 5 9
M  V30 9 2 6 10
M  V30 10 1 6 11
M  V30 11 2 7 12
M  V30 12 1 8 13
M  V30 13 2 9 14
M  V30 14 1 10 15
M  V30 15 2 11 16
M  V30 16 1 13 17
M  V30 17 2 13 18
M  V30 18 1 15 19
M  V30 19 2 15 20
M  V30 20 2 17 21
M  V30 21 1 17 22
M  V30 22 1 19 23
M  V30 23 1 22 24
M  V30 24 2 24 25
M  V30 25 1 24 26
M  V30 26 1 25 27
M  V30 27 1 25 28
M  V30 28 2 26 29
M  V30 29 2 27 30
M  V30 30 1 27 31
M  V30 31 2 28 32
M  V30 32 1 32 33
M  V30 33 1 10 12
M  V30 34 1 14 18
M  V30 35 1 16 20
M  V30 36 1 29 32
M  V30 END BOND
M  V30 END CTAB
M  END
>  <Molecule ChEMBL ID>
CHEMBL525366

>  <Smiles>
COc1cccc2c1ccn2S(=O)(=O)c1cccc(C(=O)Nc2ccc(C)cc2C(=O)O)c1

>  <IC50_nM>
1584.89

>  <Assay Description>
Displacement of radiolabeled ligand from human PPARgamma by competition-binding assay

$$$$
CHEMBL230259
Actelion Java MolfileCreator 2.0

  0  0  0  0  0  0              0 V3000
M  V30 BEGIN CTAB
M  V30 COUNTS 43 47 0 0 0
M  V30 BEGIN ATOM
M  V30 1 O 0.0 1.5 0.0 0
M  V30 2 C 0.866 0.9999 0.0 0
M  V30 3 C 0.866 0.0 0.0 0
M  V30 4 C 1.732 1.4999 0.0 0
M  V30 5 C 1.732 -0.4999 0.0 0
M  V30 6 C 0.0 -0.4999 0.0 0
M  V30 7 C 2.598 0.9999 0.0 0
M  V30 8 C 1.732 2.4999 0.0 0
M  V30 9 N 2.598 0.0 0.0 0
M  V30 10 C 1.732 -1.5 0.0 0
M  V30 11 C 0.0 -1.4999 0.0 0
M  V30 12 C 3.4641 1.4999 0.0 0
M  V30 13 C 2.598 2.9999 0.0 0
M  V30 14 C 3.4641 -0.5 0.0 0 CFG=2
M  V30 15 C 0.866 -1.9999 0.0 0
M  V30 16 C 3.4641 2.4999 0.0 0
M  V30 17 C 4.3301 0.0 0.0 0
M  V30 18 C 3.4641 -1.5 0.0 0
M  V30 19 N 5.1961 -0.4999 0.0 0
M  V30 20 C 4.3301 -2.0 0.0 0
M  V30 21 C 6.0621 0.0 0.0 0
M  V30 22 C 4.3301 -2.9999 0.0 0
M  V30 23 C 5.1961 -1.5 0.0 0
M  V30 24 O 6.0621 1.0 0.0 0
M  V30 25 C 6.9282 -0.5 0.0 0
M  V30 26 C 5.1961 -3.5 0.0 0
M  V30 27 C 6.0621 -2.0 0.0 0
M  V30 28 C 6.0621 -3.0 0.0 0
M  V30 29 O 6.9282 -3.5 0.0 0
M  V30 30 C 7.7942 -3.0 0.0 0
M  V30 31 C 8.6602 -3.5 0.0 0
M  V30 32 C 9.5262 -3.0 0.0 0
M  V30 33 N 10.4398 -3.4067 0.0 0
M  V30 34 C 9.6308 -2.0054 0.0 0
M  V30 35 C 11.1089 -2.6635 0.0 0
M  V30 36 O 10.6089 -1.7975 0.0 0
M  V30 37 C 8.8876 -1.3363 0.0 0
M  V30 38 C 12.1034 -2.7681 0.0 0
M  V30 39 C 12.5102 -3.6816 0.0 0
M  V30 40 C 12.6912 -1.9591 0.0 0
M  V30 41 C 13.5047 -3.7861 0.0 0
M  V30 42 C 13.6857 -2.0636 0.0 0
M  V30 43 C 14.0925 -2.9771 0.0 0
M  V30 END ATOM
M  V30 BEGIN BOND
M  V30 1 2 1 2
M  V30 2 1 2 3
M  V30 3 1 2 4
M  V30 4 2 3 5
M  V30 5 1 3 6
M  V30 6 2 4 7
M  V30 7 1 4 8
M  V30 8 1 5 9
M  V30 9 1 5 10
M  V30 10 2 6 11
M  V30 11 1 7 12
M  V30 12 2 8 13
M  V30 13 1 14 9 CFG=3
M  V30 14 2 10 15
M  V30 15 2 12 16
M  V30 16 1 14 17
M  V30 17 1 14 18
M  V30 18 1 17 19
M  V30 19 1 18 20
M  V30 20 1 19 21
M  V30 21 2 20 22
M  V30 22 1 20 23
M  V30 23 2 21 24
M  V30 24 1 21 25
M  V30 25 1 22 26
M  V30 26 2 23 27
M  V30 27 2 26 28
M  V30 28 1 28 29
M  V30 29 1 29 30
M  V30 30 1 30 31
M  V30 31 1 31 32
M  V30 32 1 32 33
M  V30 33 2 32 34
M  V30 34 2 33 35
M  V30 35 1 34 36
M  V30 36 1 34 37
M  V30 37 1 35 38
M  V30 38 2 38 39
M  V30 39 1 38 40
M  V30 40 1 39 41
M  V30 41 2 40 42
M  V30 42 2 41 43
M  V30 43 1 11 15
M  V30 44 1 13 16
M  V30 45 1 27 28
M  V30 46 1 35 36
M  V30 47 1 42 43
M  V30 END BOND
M  V30 BEGIN COLLECTION
M  V30 MDLV30/STEABS ATOMS=(1 14)
M  V30 END COLLECTION
M  V30 END CTAB
M  END
>  <Molecule ChEMBL ID>
CHEMBL230259

>  <Smiles>
CC(=O)NC[C@H](Cc1ccc(OCCc2nc(-c3ccccc3)oc2C)cc1)Nc1ccccc1C(=O)c1ccccc1

>  <IC50_nM>
1584.89

>  <Assay Description>
Inhibition of BRL-49653 stimulated human PPARgamma transactivation in CV-1 cells by GAL4 reporter assay

$$$$
CHEMBL1760418
Actelion Java MolfileCreator 2.0

  0  0  0  0  0  0              0 V3000
M  V30 BEGIN CTAB
M  V30 COUNTS 37 39 0 0 0
M  V30 BEGIN ATOM
M  V30 1 Cl 11.6913 -7.5 0.0 0
M  V30 2 C 10.3923 -6.75 0.0 0
M  V30 3 C 9.0932 -7.5 0.0 0
M  V30 4 C 10.3923 -5.25 0.0 0
M  V30 5 C 7.7942 -6.75 0.0 0
M  V30 6 C 9.0932 -4.5 0.0 0
M  V30 7 C 7.7942 -5.25 0.0 0
M  V30 8 C 6.4951 -4.5 0.0 0
M  V30 9 C 5.1961 -5.25 0.0 0
M  V30 10 C 6.4951 -3.0 0.0 0
M  V30 11 F 5.1961 -6.75 0.0 0
M  V30 12 C 3.8971 -4.5 0.0 0
M  V30 13 C 5.1961 -2.25 0.0 0
M  V30 14 C 3.8971 -3.0 0.0 0
M  V30 15 N 5.1961 -0.75 0.0 0
M  V30 16 F 2.598 -2.25 0.0 0
M  V30 17 S 6.4951 0.0 0.0 0
M  V30 18 C 3.8971 0.0 0.0 0
M  V30 19 O 7.2451 1.299 0.0 0
M  V30 20 O 5.7451 1.299 0.0 0
M  V30 21 C 7.7942 -0.75 0.0 0
M  V30 22 C 2.598 -0.75 0.0 0
M  V30 23 C 9.0932 0.0 0.0 0
M  V30 24 C 7.7942 -2.25 0.0 0
M  V30 25 C 1.299 0.0 0.0 0
M  V30 26 C 10.3923 -0.75 0.0 0
M  V30 27 C 9.0932 1.5 0.0 0
M  V30 28 C 9.0932 -3.0 0.0 0
M  V30 29 C 0.0 -0.75 0.0 0
M  V30 30 C 10.3923 -2.25 0.0 0
M  V30 31 C 11.6913 0.0 0.0 0
M  V30 32 O 11.6913 -3.0 0.0 0
M  V30 33 C 12.9903 -2.25 0.0 0 CFG=2
M  V30 34 C 14.2894 -3.0 0.0 0
M  V30 35 C 12.9903 -0.75 0.0 0
M  V30 36 O 14.2894 -4.5 0.0 0
M  V30 37 O 15.5884 -2.25 0.0 0
M  V30 END ATOM
M  V30 BEGIN BOND
M  V30 1 1 1 2
M  V30 2 2 2 3
M  V30 3 1 2 4
M  V30 4 1 3 5
M  V30 5 2 4 6
M  V30 6 2 5 7
M  V30 7 1 7 8
M  V30 8 2 8 9
M  V30 9 1 8 10
M  V30 10 1 9 11
M  V30 11 1 9 12
M  V30 12 2 10 13
M  V30 13 2 12 14
M  V30 14 1 13 15
M  V30 15 1 14 16
M  V30 16 1 15 17
M  V30 17 1 15 18
M  V30 18 2 17 19
M  V30 19 2 17 20
M  V30 20 1 17 21
M  V30 21 1 18 22
M  V30 22 2 21 23
M  V30 23 1 21 24
M  V30 24 1 22 25
M  V30 25 1 23 26
M  V30 26 1 23 27
M  V30 27 2 24 28
M  V30 28 1 25 29
M  V30 29 2 26 30
M  V30 30 1 26 31
M  V30 31 1 30 32
M  V30 32 1 32 33
M  V30 33 1 33 34
M  V30 34 1 33 35 CFG=1
M  V30 35 2 34 36
M  V30 36 1 34 37
M  V30 37 1 6 7
M  V30 38 1 13 14
M  V30 39 1 28 30
M  V30 END BOND
M  V30 BEGIN COLLECTION
M  V30 MDLV30/STERAC1 ATOMS=(1 33)
M  V30 END COLLECTION
M  V30 END CTAB
M  END
>  <Molecule ChEMBL ID>
CHEMBL1760418

>  <Smiles>
CCCCN(c1cc(-c2ccc(Cl)cc2)c(F)cc1F)S(=O)(=O)c1ccc(OC(C)C(=O)O)c(C)c1C

>  <IC50_nM>
1584.89

>  <Assay Description>
Displacement of [3H]GW 2433 from human PPARgamma by scintillation proximity assay

$$$$
CHEMBL525366
Actelion Java MolfileCreator 2.0

  0  0  0  0  0  0              0 V3000
M  V30 BEGIN CTAB
M  V30 COUNTS 33 36 0 0 0
M  V30 BEGIN ATOM
M  V30 1 S 5.1961 3.75 0.0 0
M  V30 2 O 4.4461 5.049 0.0 0
M  V30 3 O 3.6961 3.7499 0.0 0
M  V30 4 N 6.4951 4.5 0.0 0
M  V30 5 C 5.1961 2.25 0.0 0
M  V30 6 C 7.8655 3.8898 0.0 0
M  V30 7 C 6.6519 5.9917 0.0 0
M  V30 8 C 3.8971 1.5 0.0 0
M  V30 9 C 6.4951 1.5 0.0 0
M  V30 10 C 8.8692 5.0046 0.0 0
M  V30 11 C 8.329 2.4633 0.0 0
M  V30 12 C 8.1192 6.3036 0.0 0
M  V30 13 C 3.8971 0.0 0.0 0
M  V30 14 C 6.4951 0.0 0.0 0
M  V30 15 C 10.3364 4.6927 0.0 0
M  V30 16 C 9.7962 2.1514 0.0 0
M  V30 17 C 2.598 -0.75 0.0 0
M  V30 18 C 5.1961 -0.75 0.0 0
M  V30 19 O 11.3401 5.8074 0.0 0
M  V30 20 C 10.7999 3.2661 0.0 0
M  V30 21 O 2.598 -2.25 0.0 0
M  V30 22 N 1.299 0.0 0.0 0
M  V30 23 C 10.8766 7.234 0.0 0
M  V30 24 C 0.0 -0.75 0.0 0
M  V30 25 C -1.299 0.0 0.0 0
M  V30 26 C 0.0 -2.25 0.0 0
M  V30 27 C -1.299 1.5 0.0 0
M  V30 28 C -2.598 -0.75 0.0 0
M  V30 29 C -1.299 -3.0 0.0 0
M  V30 30 O 0.0 2.25 0.0 0
M  V30 31 O -2.598 2.25 0.0 0
M  V30 32 C -2.598 -2.25 0.0 0
M  V30 33 C -3.8971 -3.0 0.0 0
M  V30 END ATOM
M  V30 BEGIN BOND
M  V30 1 2 1 2
M  V30 2 2 1 3
M  V30 3 1 1 4
M  V30 4 1 1 5
M  V30 5 1 4 6
M  V30 6 1 4 7
M  V30 7 2 5 8
M  V30 8 1 5 9
M  V30 9 2 6 10
M  V30 10 1 6 11
M  V30 11 2 7 12
M  V30 12 1 8 13
M  V30 13 2 9 14
M  V30 14 1 10 15
M  V30 15 2 11 16
M  V30 16 1 13 17
M  V30 17 2 13 18
M  V30 18 1 15 19
M  V30 19 2 15 20
M  V30 20 2 17 21
M  V30 21 1 17 22
M  V30 22 1 19 23
M  V30 23 1 22 24
M  V30 24 2 24 25
M  V30 25 1 24 26
M  V30 26 1 25 27
M  V30 27 1 25 28
M  V30 28 2 26 29
M  V30 29 2 27 30
M  V30 30 1 27 31
M  V30 31 2 28 32
M  V30 32 1 32 33
M  V30 33 1 10 12
M  V30 34 1 14 18
M  V30 35 1 16 20
M  V30 36 1 29 32
M  V30 END BOND
M  V30 END CTAB
M  END
>  <Molecule ChEMBL ID>
CHEMBL525366

>  <Smiles>
COc1cccc2c1ccn2S(=O)(=O)c1cccc(C(=O)Nc2ccc(C)cc2C(=O)O)c1

>  <IC50_nM>
1584.89

>  <Assay Description>
Agonist activity at PPARgamma

$$$$
CHEMBL498172
Actelion Java MolfileCreator 2.0

  0  0  0  0  0  0              0 V3000
M  V30 BEGIN CTAB
M  V30 COUNTS 32 35 0 0 0
M  V30 BEGIN ATOM
M  V30 1 Cl 8.0425 10.2715 0.0 0
M  V30 2 C 7.579 8.8449 0.0 0
M  V30 3 C 8.5827 7.7302 0.0 0
M  V30 4 C 6.1118 8.533 0.0 0
M  V30 5 C 8.1192 6.3036 0.0 0
M  V30 6 C 5.6482 7.1065 0.0 0
M  V30 7 C 6.6519 5.9917 0.0 0
M  V30 8 C 8.8692 5.0046 0.0 0
M  V30 9 N 6.4951 4.5 0.0 0
M  V30 10 C 7.8655 3.8898 0.0 0
M  V30 11 S 5.1961 3.75 0.0 0
M  V30 12 O 4.4461 5.049 0.0 0
M  V30 13 O 3.6961 3.7499 0.0 0
M  V30 14 C 5.1961 2.25 0.0 0
M  V30 15 C 3.8971 1.5 0.0 0
M  V30 16 C 6.4951 1.5 0.0 0
M  V30 17 C 3.8971 0.0 0.0 0
M  V30 18 C 6.4951 0.0 0.0 0
M  V30 19 C 2.598 -0.75 0.0 0
M  V30 20 C 5.1961 -0.75 0.0 0
M  V30 21 O 2.598 -2.25 0.0 0
M  V30 22 N 1.299 0.0 0.0 0
M  V30 23 C 0.0 -0.75 0.0 0
M  V30 24 C -1.299 0.0 0.0 0
M  V30 25 C 0.0 -2.25 0.0 0
M  V30 26 C -1.299 1.5 0.0 0
M  V30 27 C -2.598 -0.75 0.0 0
M  V30 28 C -1.299 -3.0 0.0 0
M  V30 29 O 0.0 2.25 0.0 0
M  V30 30 O -2.598 2.25 0.0 0
M  V30 31 C -2.598 -2.25 0.0 0
M  V30 32 C -3.8971 -3.0 0.0 0
M  V30 END ATOM
M  V30 BEGIN BOND
M  V30 1 1 1 2
M  V30 2 2 2 3
M  V30 3 1 2 4
M  V30 4 1 3 5
M  V30 5 2 4 6
M  V30 6 2 5 7
M  V30 7 1 5 8
M  V30 8 1 7 9
M  V30 9 2 8 10
M  V30 10 1 9 11
M  V30 11 2 11 12
M  V30 12 2 11 13
M  V30 13 1 11 14
M  V30 14 2 14 15
M  V30 15 1 14 16
M  V30 16 1 15 17
M  V30 17 2 16 18
M  V30 18 1 17 19
M  V30 19 2 17 20
M  V30 20 2 19 21
M  V30 21 1 19 22
M  V30 22 1 22 23
M  V30 23 2 23 24
M  V30 24 1 23 25
M  V30 25 1 24 26
M  V30 26 1 24 27
M  V30 27 2 25 28
M  V30 28 2 26 29
M  V30 29 1 26 30
M  V30 30 2 27 31
M  V30 31 1 31 32
M  V30 32 1 6 7
M  V30 33 1 9 10
M  V30 34 1 18 20
M  V30 35 1 28 31
M  V30 END BOND
M  V30 END CTAB
M  END
>  <Molecule ChEMBL ID>
CHEMBL498172

>  <Smiles>
Cc1ccc(NC(=O)c2cccc(S(=O)(=O)n3ccc4cc(Cl)ccc43)c2)c(C(=O)O)c1

>  <IC50_nM>
1585

>  <Assay Description>
Agonist activity at PPARgamma

$$$$
CHEMBL3398460
Actelion Java MolfileCreator 2.0

  0  0  0  0  0  0              0 V3000
M  V30 BEGIN CTAB
M  V30 COUNTS 36 39 0 0 0
M  V30 BEGIN ATOM
M  V30 1 O 9.4121 -5.7205 0.0 0
M  V30 2 C 8.4176 -5.6159 0.0 0
M  V30 3 O 7.8298 -6.4249 0.0 0
M  V30 4 N 8.0108 -4.7024 0.0 0
M  V30 5 C 6.8353 -6.3204 0.0 0
M  V30 6 C 8.5108 -3.8364 0.0 0
M  V30 7 C 7.0327 -4.4945 0.0 0
M  V30 8 C 6.2475 -7.1294 0.0 0
M  V30 9 C 7.8417 -3.0932 0.0 0 CFG=1
M  V30 10 C 6.9282 -3.5 0.0 0 CFG=1
M  V30 11 C 8.0496 -2.1151 0.0 0
M  V30 12 C 6.0621 -3.0 0.0 0
M  V30 13 O 9.0007 -1.806 0.0 0
M  V30 14 O 7.3065 -1.4459 0.0 0
M  V30 15 C 6.0621 -1.9999 0.0 0
M  V30 16 C 5.1961 -1.4999 0.0 0
M  V30 17 C 5.1961 -0.5 0.0 0
M  V30 18 C 4.3301 -1.9999 0.0 0
M  V30 19 C 4.3301 0.0 0.0 0
M  V30 20 C 3.4641 -1.5 0.0 0
M  V30 21 C 3.4641 -0.5 0.0 0
M  V30 22 O 2.598 0.0 0.0 0
M  V30 23 C 1.732 -0.5 0.0 0
M  V30 24 C 0.866 0.0 0.0 0
M  V30 25 C 0.0 -0.5 0.0 0
M  V30 26 N -0.9135 -0.0932 0.0 0
M  V30 27 C -0.1045 -1.4945 0.0 0
M  V30 28 C -1.5826 -0.8364 0.0 0
M  V30 29 O -1.0826 -1.7024 0.0 0
M  V30 30 C 0.6386 -2.1636 0.0 0
M  V30 31 C -2.5771 -0.7318 0.0 0
M  V30 32 C -2.9839 0.1816 0.0 0
M  V30 33 C -3.1649 -1.5408 0.0 0
M  V30 34 C -3.9784 0.2861 0.0 0
M  V30 35 C -4.1595 -1.4363 0.0 0
M  V30 36 C -4.5662 -0.5228 0.0 0
M  V30 END ATOM
M  V30 BEGIN BOND
M  V30 1 2 1 2
M  V30 2 1 2 3
M  V30 3 1 2 4
M  V30 4 1 3 5
M  V30 5 1 4 6
M  V30 6 1 4 7
M  V30 7 1 5 8
M  V30 8 1 6 9
M  V30 9 1 7 10
M  V30 10 1 9 11 CFG=1
M  V30 11 1 10 12 CFG=3
M  V30 12 2 11 13
M  V30 13 1 11 14
M  V30 14 1 12 15
M  V30 15 1 15 16
M  V30 16 2 16 17
M  V30 17 1 16 18
M  V30 18 1 17 19
M  V30 19 2 18 20
M  V30 20 2 19 21
M  V30 21 1 21 22
M  V30 22 1 22 23
M  V30 23 1 23 24
M  V30 24 1 24 25
M  V30 25 1 25 26
M  V30 26 2 25 27
M  V30 27 2 26 28
M  V30 28 1 27 29
M  V30 29 1 27 30
M  V30 30 1 28 31
M  V30 31 2 31 32
M  V30 32 1 31 33
M  V30 33 1 32 34
M  V30 34 2 33 35
M  V30 35 2 34 36
M  V30 36 1 9 10
M  V30 37 1 20 21
M  V30 38 1 28 29
M  V30 39 1 35 36
M  V30 END BOND
M  V30 BEGIN COLLECTION
M  V30 MDLV30/STEABS ATOMS=(2 9 10)
M  V30 END COLLECTION
M  V30 END CTAB
M  END
>  <Molecule ChEMBL ID>
CHEMBL3398460

>  <Smiles>
CCOC(=O)N1C[C@H](CCc2ccc(OCCc3nc(-c4ccccc4)oc3C)cc2)[C@@H](C(=O)O)C1

>  <IC50_nM>
1590

>  <Assay Description>
Binding affinity to PPARgamma (unknown origin) using fluorescein-tagged dual PPARalpha/gamma activator by homogeneous fluorescence polarization binding assay

$$$$
CHEMBL593087
Actelion Java MolfileCreator 2.0

  0  0  0  0  0  0              0 V3000
M  V30 BEGIN CTAB
M  V30 COUNTS 31 34 0 0 0
M  V30 BEGIN ATOM
M  V30 1 S 4.1134 -4.7024 0.0 0
M  V30 2 C 5.0916 -4.4945 0.0 0
M  V30 3 C 3.6134 -3.8364 0.0 0
M  V30 4 C 5.1961 -3.5 0.0 0
M  V30 5 C 4.2826 -3.0932 0.0 0
M  V30 6 C 6.0621 -3.0 0.0 0 CFG=2
M  V30 7 C 6.9282 -3.5 0.0 0
M  V30 8 C 6.0621 -1.9999 0.0 0
M  V30 9 O 6.9282 -4.5 0.0 0
M  V30 10 O 7.7942 -3.0 0.0 0
M  V30 11 C 5.1961 -1.4999 0.0 0
M  V30 12 C 5.1961 -0.5 0.0 0
M  V30 13 C 4.3301 -1.9999 0.0 0
M  V30 14 C 4.3301 0.0 0.0 0
M  V30 15 C 3.4641 -1.5 0.0 0
M  V30 16 C 3.4641 -0.5 0.0 0
M  V30 17 C 2.598 0.0 0.0 0
M  V30 18 C 1.732 -0.5 0.0 0
M  V30 19 C 0.866 0.0 0.0 0
M  V30 20 C 0.0 -0.5 0.0 0
M  V30 21 N -0.9135 -0.0932 0.0 0
M  V30 22 C -0.1045 -1.4945 0.0 0
M  V30 23 C -1.5826 -0.8364 0.0 0
M  V30 24 O -1.0826 -1.7024 0.0 0
M  V30 25 C 0.6386 -2.1636 0.0 0
M  V30 26 C -2.5771 -0.7318 0.0 0
M  V30 27 C -2.9839 0.1816 0.0 0
M  V30 28 C -3.1649 -1.5408 0.0 0
M  V30 29 C -3.9784 0.2861 0.0 0
M  V30 30 C -4.1595 -1.4363 0.0 0
M  V30 31 C -4.5662 -0.5228 0.0 0
M  V30 END ATOM
M  V30 BEGIN BOND
M  V30 1 1 1 2
M  V30 2 1 1 3
M  V30 3 2 2 4
M  V30 4 2 3 5
M  V30 5 1 4 6
M  V30 6 1 6 7
M  V30 7 1 6 8 CFG=1
M  V30 8 2 7 9
M  V30 9 1 7 10
M  V30 10 1 8 11
M  V30 11 2 11 12
M  V30 12 1 11 13
M  V30 13 1 12 14
M  V30 14 2 13 15
M  V30 15 2 14 16
M  V30 16 1 16 17
M  V30 17 1 17 18
M  V30 18 1 18 19
M  V30 19 1 19 20
M  V30 20 1 20 21
M  V30 21 2 20 22
M  V30 22 2 21 23
M  V30 23 1 22 24
M  V30 24 1 22 25
M  V30 25 1 23 26
M  V30 26 2 26 27
M  V30 27 1 26 28
M  V30 28 1 27 29
M  V30 29 2 28 30
M  V30 30 2 29 31
M  V30 31 1 4 5
M  V30 32 1 15 16
M  V30 33 1 23 24
M  V30 34 1 30 31
M  V30 END BOND
M  V30 BEGIN COLLECTION
M  V30 MDLV30/STERAC1 ATOMS=(1 6)
M  V30 END COLLECTION
M  V30 END CTAB
M  END
>  <Molecule ChEMBL ID>
CHEMBL593087

>  <Smiles>
Cc1oc(-c2ccccc2)nc1CCCc1ccc(CC(C(=O)O)c2ccsc2)cc1

>  <IC50_nM>
1600

>  <Assay Description>
Displacement of [3H2]nTZD3 from GST-tagged human PPARgamma expressed in Escherichia coli by SPA

$$$$
CHEMBL603538
Actelion Java MolfileCreator 2.0

  0  0  0  0  0  0              0 V3000
M  V30 BEGIN CTAB
M  V30 COUNTS 32 35 0 0 0
M  V30 BEGIN ATOM
M  V30 1 O 6.9282 -4.5 0.0 0
M  V30 2 C 6.9282 -3.5 0.0 0
M  V30 3 O 7.7942 -3.0 0.0 0
M  V30 4 C 6.0621 -3.0 0.0 0 CFG=1
M  V30 5 C 5.1961 -3.5 0.0 0
M  V30 6 C 6.0621 -1.9999 0.0 0
M  V30 7 O 4.2826 -3.0932 0.0 0
M  V30 8 C 5.0916 -4.4945 0.0 0
M  V30 9 C 5.1961 -1.4999 0.0 0
M  V30 10 N 3.6134 -3.8364 0.0 0
M  V30 11 C 4.1134 -4.7024 0.0 0
M  V30 12 C 5.1961 -0.5 0.0 0
M  V30 13 C 4.3301 -1.9999 0.0 0
M  V30 14 C 3.7067 -5.6159 0.0 0
M  V30 15 C 4.3301 0.0 0.0 0
M  V30 16 C 3.4641 -1.5 0.0 0
M  V30 17 C 3.4641 -0.5 0.0 0
M  V30 18 C 2.598 0.0 0.0 0
M  V30 19 C 1.732 -0.5 0.0 0
M  V30 20 C 0.866 0.0 0.0 0
M  V30 21 C 0.0 -0.5 0.0 0
M  V30 22 N -0.9135 -0.0932 0.0 0
M  V30 23 C -0.1045 -1.4945 0.0 0
M  V30 24 C -1.5826 -0.8364 0.0 0
M  V30 25 O -1.0826 -1.7024 0.0 0
M  V30 26 C 0.6386 -2.1636 0.0 0
M  V30 27 C -2.5771 -0.7318 0.0 0
M  V30 28 C -2.9839 0.1816 0.0 0
M  V30 29 C -3.1649 -1.5408 0.0 0
M  V30 30 C -3.9784 0.2861 0.0 0
M  V30 31 C -4.1595 -1.4363 0.0 0
M  V30 32 C -4.5662 -0.5228 0.0 0
M  V30 END ATOM
M  V30 BEGIN BOND
M  V30 1 2 1 2
M  V30 2 1 2 3
M  V30 3 1 2 4
M  V30 4 1 4 5
M  V30 5 1 4 6 CFG=1
M  V30 6 1 5 7
M  V30 7 2 5 8
M  V30 8 1 6 9
M  V30 9 1 7 10
M  V30 10 1 8 11
M  V30 11 2 9 12
M  V30 12 1 9 13
M  V30 13 1 11 14
M  V30 14 1 12 15
M  V30 15 2 13 16
M  V30 16 2 15 17
M  V30 17 1 17 18
M  V30 18 1 18 19
M  V30 19 1 19 20
M  V30 20 1 20 21
M  V30 21 1 21 22
M  V30 22 2 21 23
M  V30 23 2 22 24
M  V30 24 1 23 25
M  V30 25 1 23 26
M  V30 26 1 24 27
M  V30 27 2 27 28
M  V30 28 1 27 29
M  V30 29 1 28 30
M  V30 30 2 29 31
M  V30 31 2 30 32
M  V30 32 2 10 11
M  V30 33 1 16 17
M  V30 34 1 24 25
M  V30 35 1 31 32
M  V30 END BOND
M  V30 BEGIN COLLECTION
M  V30 MDLV30/STERAC1 ATOMS=(1 4)
M  V30 END COLLECTION
M  V30 END CTAB
M  END
>  <Molecule ChEMBL ID>
CHEMBL603538

>  <Smiles>
Cc1cc(C(Cc2ccc(CCCc3nc(-c4ccccc4)oc3C)cc2)C(=O)O)on1

>  <IC50_nM>
1600

>  <Assay Description>
Displacement of [3H2]nTZD3 from GST-tagged human PPARgamma expressed in Escherichia coli by SPA

$$$$
CHEMBL477323
Actelion Java MolfileCreator 2.0

  0  0  0  0  0  0              0 V3000
M  V30 BEGIN CTAB
M  V30 COUNTS 31 34 0 0 0
M  V30 BEGIN ATOM
M  V30 1 O 6.9282 -4.5 0.0 0
M  V30 2 C 6.9282 -3.5 0.0 0
M  V30 3 O 7.7942 -3.0 0.0 0
M  V30 4 C 6.0621 -3.0 0.0 0 CFG=1
M  V30 5 N 5.1961 -3.5 0.0 0
M  V30 6 C 6.0621 -1.9999 0.0 0
M  V30 7 C 4.2826 -3.0932 0.0 0
M  V30 8 C 5.0916 -4.4945 0.0 0
M  V30 9 C 5.1961 -1.4999 0.0 0
M  V30 10 C 3.6134 -3.8364 0.0 0
M  V30 11 C 4.1134 -4.7024 0.0 0
M  V30 12 C 5.1961 -0.5 0.0 0
M  V30 13 C 4.3301 -1.9999 0.0 0
M  V30 14 C 4.3301 0.0 0.0 0
M  V30 15 C 3.4641 -1.5 0.0 0
M  V30 16 C 3.4641 -0.5 0.0 0
M  V30 17 N 2.598 0.0 0.0 0
M  V30 18 C 1.732 -0.5 0.0 0
M  V30 19 C 0.866 0.0 0.0 0
M  V30 20 C 0.0 -0.5 0.0 0
M  V30 21 N -0.9135 -0.0932 0.0 0
M  V30 22 C -0.1045 -1.4945 0.0 0
M  V30 23 C -1.5826 -0.8364 0.0 0
M  V30 24 O -1.0826 -1.7024 0.0 0
M  V30 25 C 0.6386 -2.1636 0.0 0
M  V30 26 C -2.5771 -0.7318 0.0 0
M  V30 27 C -2.9839 0.1816 0.0 0
M  V30 28 C -3.1649 -1.5408 0.0 0
M  V30 29 C -3.9784 0.2861 0.0 0
M  V30 30 C -4.1595 -1.4363 0.0 0
M  V30 31 C -4.5662 -0.5228 0.0 0
M  V30 END ATOM
M  V30 BEGIN BOND
M  V30 1 2 1 2
M  V30 2 1 2 3
M  V30 3 1 2 4
M  V30 4 1 4 5 CFG=1
M  V30 5 1 4 6
M  V30 6 1 5 7
M  V30 7 1 5 8
M  V30 8 1 6 9
M  V30 9 2 7 10
M  V30 10 2 8 11
M  V30 11 2 9 12
M  V30 12 1 9 13
M  V30 13 1 12 14
M  V30 14 2 13 15
M  V30 15 2 14 16
M  V30 16 1 16 17
M  V30 17 1 17 18
M  V30 18 1 18 19
M  V30 19 1 19 20
M  V30 20 1 20 21
M  V30 21 2 20 22
M  V30 22 2 21 23
M  V30 23 1 22 24
M  V30 24 1 22 25
M  V30 25 1 23 26
M  V30 26 2 26 27
M  V30 27 1 26 28
M  V30 28 1 27 29
M  V30 29 2 28 30
M  V30 30 2 29 31
M  V30 31 1 10 11
M  V30 32 1 15 16
M  V30 33 1 23 24
M  V30 34 1 30 31
M  V30 END BOND
M  V30 BEGIN COLLECTION
M  V30 MDLV30/STEABS ATOMS=(1 4)
M  V30 END COLLECTION
M  V30 END CTAB
M  END
>  <Molecule ChEMBL ID>
CHEMBL477323

>  <Smiles>
Cc1oc(-c2ccccc2)nc1CCNc1ccc(C[C@@H](C(=O)O)n2cccc2)cc1

>  <IC50_nM>
1600

>  <Assay Description>
Displacement of [3H]darglitazone from human PPARgamma by scintillation proximity assay

$$$$
CHEMBL4858300
Actelion Java MolfileCreator 2.0

  0  0  0  0  0  0              0 V3000
M  V30 BEGIN CTAB
M  V30 COUNTS 44 48 0 0 0
M  V30 BEGIN ATOM
M  V30 1 O 4.3301 0.9999 0.0 0
M  V30 2 C 4.3301 0.0 0.0 0
M  V30 3 N 5.1961 -0.5 0.0 0
M  V30 4 N 3.4641 -0.5 0.0 0
M  V30 5 C 6.0621 0.0 0.0 0
M  V30 6 C 2.598 0.0 0.0 0
M  V30 7 C 6.9282 -0.5 0.0 0
M  V30 8 C 6.0621 0.9999 0.0 0
M  V30 9 C 1.732 -0.5 0.0 0
M  V30 10 C 7.7942 0.0 0.0 0
M  V30 11 C 6.9282 1.4999 0.0 0
M  V30 12 O 1.732 -1.5 0.0 0
M  V30 13 N 0.866 0.0 0.0 0
M  V30 14 C 7.7942 0.9999 0.0 0
M  V30 15 C 0.0 -0.5 0.0 0
M  V30 16 N 8.6602 1.4999 0.0 0
M  V30 17 C -0.866 0.0 0.0 0
M  V30 18 C 0.0 -1.4999 0.0 0
M  V30 19 C 9.5262 0.9999 0.0 0
M  V30 20 C -1.732 -0.4999 0.0 0
M  V30 21 C -0.866 -1.9999 0.0 0
M  V30 22 O 9.5262 0.0 0.0 0
M  V30 23 N 10.3923 1.4999 0.0 0
M  V30 24 C -1.732 -1.4999 0.0 0
M  V30 25 C 11.2583 0.9999 0.0 0
M  V30 26 C -2.598 -1.9999 0.0 0
M  V30 27 C 12.1243 1.4999 0.0 0
M  V30 28 N -3.5116 -1.5932 0.0 0
M  V30 29 N -2.7026 -2.9945 0.0 0
M  V30 30 O 12.1243 2.4999 0.0 0
M  V30 31 N 12.9903 0.9999 0.0 0
M  V30 32 C -4.1807 -2.3364 0.0 0
M  V30 33 C -3.6807 -3.2024 0.0 0
M  V30 34 C 13.8564 1.4999 0.0 0
M  V30 35 C 14.7224 0.9999 0.0 0
M  V30 36 C 13.8564 2.4999 0.0 0
M  V30 37 C 15.5884 1.4999 0.0 0
M  V30 38 C 14.7224 2.9999 0.0 0
M  V30 39 C 15.5884 2.4999 0.0 0
M  V30 40 C 16.4544 2.9999 0.0 0
M  V30 41 N 17.368 2.5932 0.0 0
M  V30 42 N 16.559 3.9945 0.0 0
M  V30 43 C 18.0371 3.3364 0.0 0
M  V30 44 C 17.5371 4.2024 0.0 0
M  V30 END ATOM
M  V30 BEGIN BOND
M  V30 1 2 1 2
M  V30 2 1 2 3
M  V30 3 1 2 4
M  V30 4 1 3 5
M  V30 5 1 4 6
M  V30 6 2 5 7
M  V30 7 1 5 8
M  V30 8 1 6 9
M  V30 9 1 7 10
M  V30 10 2 8 11
M  V30 11 2 9 12
M  V30 12 1 9 13
M  V30 13 2 10 14
M  V30 14 1 13 15
M  V30 15 1 14 16
M  V30 16 2 15 17
M  V30 17 1 15 18
M  V30 18 1 16 19
M  V30 19 1 17 20
M  V30 20 2 18 21
M  V30 21 2 19 22
M  V30 22 1 19 23
M  V30 23 2 20 24
M  V30 24 1 23 25
M  V30 25 1 24 26
M  V30 26 1 25 27
M  V30 27 2 26 28
M  V30 28 1 26 29
M  V30 29 2 27 30
M  V30 30 1 27 31
M  V30 31 1 28 32
M  V30 32 1 29 33
M  V30 33 1 31 34
M  V30 34 2 34 35
M  V30 35 1 34 36
M  V30 36 1 35 37
M  V30 37 2 36 38
M  V30 38 2 37 39
M  V30 39 1 39 40
M  V30 40 2 40 41
M  V30 41 1 40 42
M  V30 42 1 41 43
M  V30 43 1 42 44
M  V30 44 1 11 14
M  V30 45 1 21 24
M  V30 46 1 32 33
M  V30 47 1 38 39
M  V30 48 1 43 44
M  V30 END BOND
M  V30 END CTAB
M  END
>  <Molecule ChEMBL ID>
CHEMBL4858300

>  <Smiles>
O=C(CNC(=O)Nc1ccc(NC(=O)NCC(=O)Nc2ccc(C3=NCCN3)cc2)cc1)Nc1ccc(C2=NCCN2)cc1

>  <IC50_nM>
1600

>  <Assay Description>
Antagonist activity at PPARgamma (unknown origin) expressed in human LNCaP cells assessed as suppression of pioglitazone-induced PPAR response element driven firefly luciferase activity measured after 24 hrs by dual luciferase reporter assay

$$$$
CHEMBL491147
Actelion Java MolfileCreator 2.0

  0  0  0  0  0  0              0 V3000
M  V30 BEGIN CTAB
M  V30 COUNTS 33 35 0 0 0
M  V30 BEGIN ATOM
M  V30 1 Br 10.3923 2.25 0.0 0
M  V30 2 C 9.0932 1.5 0.0 0
M  V30 3 C 7.7942 2.25 0.0 0
M  V30 4 C 9.0932 0.0 0.0 0
M  V30 5 C 6.4952 1.5 0.0 0
M  V30 6 C 7.7942 -0.75 0.0 0
M  V30 7 C 6.4952 0.0 0.0 0
M  V30 8 S 5.1961 -0.75 0.0 0
M  V30 9 O 4.4461 -2.049 0.0 0
M  V30 10 O 5.9461 -2.049 0.0 0
M  V30 11 N 3.8971 0.0 0.0 0
M  V30 12 C 2.598 -0.75 0.0 0
M  V30 13 C 1.299 0.0 0.0 0
M  V30 14 C 0.0 -0.75 0.0 0
M  V30 15 C -1.299 0.0 0.0 0
M  V30 16 C 0.0 -2.25 0.0 0
M  V30 17 C -2.598 -0.75 0.0 0
M  V30 18 C -1.299 -3.0 0.0 0
M  V30 19 C -2.598 -2.25 0.0 0
M  V30 20 S -3.8971 -3.0 0.0 0
M  V30 21 O -4.6471 -4.299 0.0 0
M  V30 22 O -3.1471 -4.299 0.0 0
M  V30 23 N -5.1961 -2.25 0.0 0
M  V30 24 C -6.4952 -3.0 0.0 0
M  V30 25 O -6.4952 -4.5 0.0 0
M  V30 26 N -7.7942 -2.25 0.0 0
M  V30 27 C -9.0932 -3.0 0.0 0
M  V30 28 C -10.3923 -2.25 0.0 0
M  V30 29 C -9.0932 -4.5 0.0 0
M  V30 30 C -11.6913 -3.0 0.0 0
M  V30 31 C -10.3923 -5.25 0.0 0
M  V30 32 C -11.6913 -4.5 0.0 0
M  V30 33 C -12.9904 -5.25 0.0 0
M  V30 END ATOM
M  V30 BEGIN BOND
M  V30 1 1 1 2
M  V30 2 2 2 3
M  V30 3 1 2 4
M  V30 4 1 3 5
M  V30 5 2 4 6
M  V30 6 2 5 7
M  V30 7 1 7 8
M  V30 8 2 8 9
M  V30 9 2 8 10
M  V30 10 1 8 11
M  V30 11 1 11 12
M  V30 12 1 12 13
M  V30 13 1 13 14
M  V30 14 2 14 15
M  V30 15 1 14 16
M  V30 16 1 15 17
M  V30 17 2 16 18
M  V30 18 2 17 19
M  V30 19 1 19 20
M  V30 20 2 20 21
M  V30 21 2 20 22
M  V30 22 1 20 23
M  V30 23 1 23 24
M  V30 24 2 24 25
M  V30 25 1 24 26
M  V30 26 1 26 27
M  V30 27 1 27 28
M  V30 28 1 27 29
M  V30 29 1 28 30
M  V30 30 1 29 31
M  V30 31 1 30 32
M  V30 32 1 32 33
M  V30 33 1 6 7
M  V30 34 1 18 19
M  V30 35 1 31 32
M  V30 END BOND
M  V30 END CTAB
M  END
>  <Molecule ChEMBL ID>
CHEMBL491147

>  <Smiles>
CC1CCC(NC(=O)NS(=O)(=O)c2ccc(CCNS(=O)(=O)c3ccc(Br)cc3)cc2)CC1

>  <IC50_nM>
1600

>  <Assay Description>
Displacement of fluormone-PPARgamma green from GST-tagged PPARgamma-LBD (unknown origin) by fluorescence polarization assay

$$$$
CHEMBL15594
Actelion Java MolfileCreator 2.0

  0  0  0  0  0  0              0 V3000
M  V30 BEGIN CTAB
M  V30 COUNTS 22 21 0 0 0
M  V30 BEGIN ATOM
M  V30 1 O 8.6602 -6.4999 0.0 0
M  V30 2 C 9.5262 -5.9999 0.0 0
M  V30 3 O 10.3923 -6.5 0.0 0
M  V30 4 C 9.5262 -4.9999 0.0 0
M  V30 5 C 10.3923 -4.5 0.0 0
M  V30 6 C 10.3923 -3.4999 0.0 0
M  V30 7 C 11.2583 -3.0 0.0 0
M  V30 8 C 11.2583 -2.0 0.0 0
M  V30 9 C 10.3923 -1.5 0.0 0
M  V30 10 C 10.3923 -0.5 0.0 0
M  V30 11 C 9.5262 0.0 0.0 0
M  V30 12 C 8.6602 -0.5 0.0 0
M  V30 13 C 7.7942 0.0 0.0 0
M  V30 14 C 6.9282 -0.5 0.0 0
M  V30 15 C 6.9282 -1.4999 0.0 0
M  V30 16 C 6.0621 -2.0 0.0 0
M  V30 17 C 5.1961 -1.5 0.0 0
M  V30 18 C 5.1961 -0.5 0.0 0
M  V30 19 C 6.0621 0.0 0.0 0
M  V30 20 C 6.0621 0.9999 0.0 0
M  V30 21 C 6.9282 1.5 0.0 0
M  V30 22 C 6.9282 2.4999 0.0 0
M  V30 END ATOM
M  V30 BEGIN BOND
M  V30 1 2 1 2
M  V30 2 1 2 3
M  V30 3 1 2 4
M  V30 4 1 4 5
M  V30 5 1 5 6
M  V30 6 1 6 7
M  V30 7 2 7 8
M  V30 8 1 8 9
M  V30 9 1 9 10
M  V30 10 2 10 11
M  V30 11 1 11 12
M  V30 12 1 12 13
M  V30 13 2 13 14
M  V30 14 1 14 15
M  V30 15 1 15 16
M  V30 16 2 16 17
M  V30 17 1 17 18
M  V30 18 1 18 19
M  V30 19 1 19 20
M  V30 20 1 20 21
M  V30 21 1 21 22
M  V30 END BOND
M  V30 END CTAB
M  END
>  <Molecule ChEMBL ID>
CHEMBL15594

>  <Smiles>
CCCCC/C=C\C/C=C\C/C=C\C/C=C\CCCC(=O)O

>  <IC50_nM>
1600

>  <Assay Description>
Displacement of [3H]BRL49653 from Homo sapiens (human) PPARgamma receptor by scintillation proximity assay

$$$$
CHEMBL460026
Actelion Java MolfileCreator 2.0

  0  0  0  0  0  0              0 V3000
M  V30 BEGIN CTAB
M  V30 COUNTS 22 21 0 0 0
M  V30 BEGIN ATOM
M  V30 1 O 13.8564 2.4999 0.0 0
M  V30 2 C 13.8564 1.4999 0.0 0
M  V30 3 O 14.7224 0.9999 0.0 0
M  V30 4 C 12.9903 0.9999 0.0 0
M  V30 5 C 12.9903 0.0 0.0 0
M  V30 6 C 12.1243 -0.5 0.0 0
M  V30 7 C 12.1243 -1.5 0.0 0
M  V30 8 C 11.2583 -2.0 0.0 0
M  V30 9 C 10.3923 -1.5 0.0 0
M  V30 10 C 10.3923 -0.5 0.0 0
M  V30 11 C 9.5262 0.0 0.0 0
M  V30 12 C 8.6602 -0.5 0.0 0
M  V30 13 C 7.7942 0.0 0.0 0
M  V30 14 C 6.9282 -0.5 0.0 0
M  V30 15 C 6.9282 -1.4999 0.0 0
M  V30 16 C 6.0621 -2.0 0.0 0
M  V30 17 C 6.0621 -3.0 0.0 0
M  V30 18 C 6.9282 -3.4999 0.0 0
M  V30 19 C 6.9282 -4.5 0.0 0
M  V30 20 C 7.7942 -4.9999 0.0 0
M  V30 21 C 8.6602 -4.4999 0.0 0
M  V30 22 C 9.5262 -4.9999 0.0 0
M  V30 END ATOM
M  V30 BEGIN BOND
M  V30 1 2 1 2
M  V30 2 1 2 3
M  V30 3 1 2 4
M  V30 4 1 4 5
M  V30 5 1 5 6
M  V30 6 1 6 7
M  V30 7 2 7 8
M  V30 8 1 8 9
M  V30 9 1 9 10
M  V30 10 2 10 11
M  V30 11 1 11 12
M  V30 12 1 12 13
M  V30 13 2 13 14
M  V30 14 1 14 15
M  V30 15 1 15 16
M  V30 16 2 16 17
M  V30 17 1 17 18
M  V30 18 1 18 19
M  V30 19 2 19 20
M  V30 20 1 20 21
M  V30 21 1 21 22
M  V30 END BOND
M  V30 END CTAB
M  END
>  <Molecule ChEMBL ID>
CHEMBL460026

>  <Smiles>
CC/C=C\C/C=C\C/C=C\C/C=C\C/C=C\CCCC(=O)O

>  <IC50_nM>
1600

>  <Assay Description>
Displacement of [3H]BRL49653 from Homo sapiens (human) PPARgamma receptor by scintillation proximity assay

$$$$
CHEMBL561371
Actelion Java MolfileCreator 2.0

  0  0  0  0  0  0              0 V3000
M  V30 BEGIN CTAB
M  V30 COUNTS 23 22 0 0 0
M  V30 BEGIN ATOM
M  V30 1 O 7.7942 -2.0 0.0 0
M  V30 2 N 8.6602 -1.5 0.0 0 CHG=1
M  V30 3 O 9.5262 -2.0 0.0 0 CHG=-1
M  V30 4 C 8.6602 -0.5 0.0 0
M  V30 5 C 7.7942 0.0 0.0 0
M  V30 6 C 9.5262 0.0 0.0 0
M  V30 7 C 7.7942 0.9999 0.0 0
M  V30 8 C 10.3923 -0.5 0.0 0
M  V30 9 C 6.9282 1.4999 0.0 0
M  V30 10 C 11.2583 0.0 0.0 0
M  V30 11 C 6.9282 2.4999 0.0 0
M  V30 12 C 12.1243 -0.5 0.0 0
M  V30 13 C 6.0621 2.9999 0.0 0
M  V30 14 C 12.9903 0.0 0.0 0
M  V30 15 C 6.0621 3.9999 0.0 0
M  V30 16 C 13.8564 -0.5 0.0 0
M  V30 17 C 5.1961 4.4999 0.0 0
M  V30 18 C 14.7224 0.0 0.0 0
M  V30 19 C 5.1961 5.4999 0.0 0
M  V30 20 C 15.5884 -0.5 0.0 0
M  V30 21 C 4.3301 5.9999 0.0 0
M  V30 22 O 3.4641 5.4999 0.0 0
M  V30 23 O 4.3301 6.9999 0.0 0
M  V30 END ATOM
M  V30 BEGIN BOND
M  V30 1 2 1 2
M  V30 2 1 2 3
M  V30 3 1 2 4
M  V30 4 2 4 5
M  V30 5 1 4 6
M  V30 6 1 5 7
M  V30 7 1 6 8
M  V30 8 1 7 9
M  V30 9 1 8 10
M  V30 10 1 9 11
M  V30 11 1 10 12
M  V30 12 1 11 13
M  V30 13 1 12 14
M  V30 14 1 13 15
M  V30 15 1 14 16
M  V30 16 1 15 17
M  V30 17 1 16 18
M  V30 18 1 17 19
M  V30 19 1 18 20
M  V30 20 1 19 21
M  V30 21 2 21 22
M  V30 22 1 21 23
M  V30 END BOND
M  V30 END CTAB
M  END
>  <Molecule ChEMBL ID>
CHEMBL561371

>  <Smiles>
CCCCCCCC/C(=C\CCCCCCCC(=O)O)[N+](=O)[O-]

>  <IC50_nM>
1610

>  <Assay Description>
Displacement of [3H2]nTZD3 from GST-tagged human recombinant PPARgamma by scintillation proximity assay

$$$$
CHEMBL190739
Actelion Java MolfileCreator 2.0

  0  0  0  0  0  0              0 V3000
M  V30 BEGIN CTAB
M  V30 COUNTS 24 25 0 0 0
M  V30 BEGIN ATOM
M  V30 1 O 5.1961 -0.75 0.0 0
M  V30 2 C 3.8971 0.0 0.0 0
M  V30 3 O 3.8971 1.5 0.0 0
M  V30 4 C 2.598 -0.75 0.0 0
M  V30 5 O 1.299 0.0 0.0 0
M  V30 6 C 1.848 -2.049 0.0 0
M  V30 7 C 3.348 -2.049 0.0 0
M  V30 8 C 0.0 -0.75 0.0 0
M  V30 9 C -1.299 0.0 0.0 0
M  V30 10 C 0.0 -2.25 0.0 0
M  V30 11 C -2.598 -0.75 0.0 0
M  V30 12 C -1.299 1.5 0.0 0
M  V30 13 C -1.299 -3.0 0.0 0
M  V30 14 C 1.299 -3.0 0.0 0
M  V30 15 O -4.0246 -0.2864 0.0 0
M  V30 16 C -2.598 -2.25 0.0 0
M  V30 17 C -2.598 2.25 0.0 0
M  V30 18 C 1.299 -4.5 0.0 0
M  V30 19 N -4.9063 -1.5 0.0 0
M  V30 20 C -4.0246 -2.7135 0.0 0
M  V30 21 C -2.598 3.75 0.0 0
M  V30 22 C 2.598 -5.25 0.0 0
M  V30 23 O -4.4881 -4.1401 0.0 0
M  V30 24 C -3.4844 -5.2548 0.0 0
M  V30 END ATOM
M  V30 BEGIN BOND
M  V30 1 2 1 2
M  V30 2 1 2 3
M  V30 3 1 2 4
M  V30 4 1 4 5
M  V30 5 1 4 6
M  V30 6 1 4 7
M  V30 7 1 5 8
M  V30 8 2 8 9
M  V30 9 1 8 10
M  V30 10 1 9 11
M  V30 11 1 9 12
M  V30 12 2 10 13
M  V30 13 1 10 14
M  V30 14 1 11 15
M  V30 15 2 11 16
M  V30 16 1 12 17
M  V30 17 1 14 18
M  V30 18 1 15 19
M  V30 19 1 16 20
M  V30 20 1 17 21
M  V30 21 1 18 22
M  V30 22 1 20 23
M  V30 23 1 23 24
M  V30 24 1 13 16
M  V30 25 2 19 20
M  V30 END BOND
M  V30 END CTAB
M  END
>  <Molecule ChEMBL ID>
CHEMBL190739

>  <Smiles>
CCCc1cc2c(OC)noc2c(CCC)c1OC(C)(C)C(=O)O

>  <IC50_nM>
1620

>  <Assay Description>
Inhibition of human Peroxisome proliferator activated receptor gamma binding

$$$$
CHEMBL5090821
Actelion Java MolfileCreator 2.0

  0  0  0  0  0  0              0 V3000
M  V30 BEGIN CTAB
M  V30 COUNTS 36 39 0 0 0
M  V30 BEGIN ATOM
M  V30 1 S 6.0621 -3.0 0.0 0
M  V30 2 O 5.0621 -2.9999 0.0 0
M  V30 3 O 7.0621 -3.0 0.0 0
M  V30 4 N 6.0621 -1.9999 0.0 0
M  V30 5 C 6.0621 -4.0 0.0 0
M  V30 6 C 5.1961 -1.4999 0.0 0
M  V30 7 C 5.1961 -0.5 0.0 0
M  V30 8 C 4.3301 -1.9999 0.0 0
M  V30 9 C 4.3301 0.0 0.0 0
M  V30 10 C 3.4641 -1.5 0.0 0
M  V30 11 C 3.4641 -0.5 0.0 0
M  V30 12 C 4.3301 1.0 0.0 0
M  V30 13 C 2.598 0.0 0.0 0
M  V30 14 F 3.3301 1.0 0.0 0
M  V30 15 F 4.3301 2.0 0.0 0
M  V30 16 F 5.3301 1.0 0.0 0
M  V30 17 N 1.732 -0.5 0.0 0
M  V30 18 C 0.866 0.0 0.0 0
M  V30 19 O 0.866 1.0 0.0 0
M  V30 20 C 0.0 -0.5 0.0 0
M  V30 21 C 0.0 -1.4999 0.0 0
M  V30 22 C -0.866 0.0 0.0 0
M  V30 23 C -0.866 -1.9999 0.0 0
M  V30 24 C -1.732 -0.4999 0.0 0
M  V30 25 C -1.732 -1.4999 0.0 0
M  V30 26 C -1.0739 -2.9781 0.0 0
M  V30 27 N -2.4751 -2.1691 0.0 0
M  V30 28 C -2.0684 -3.0826 0.0 0
M  V30 29 C -3.4533 -1.9612 0.0 0
M  V30 30 C -4.1224 -2.7043 0.0 0
M  V30 31 C -5.1006 -2.4964 0.0 0
M  V30 32 C -3.8134 -3.6554 0.0 0
M  V30 33 C -5.7697 -3.2395 0.0 0
M  V30 34 C -4.4825 -4.3985 0.0 0
M  V30 35 F -6.7478 -3.0316 0.0 0
M  V30 36 C -5.4607 -4.1906 0.0 0
M  V30 END ATOM
M  V30 BEGIN BOND
M  V30 1 2 1 2
M  V30 2 2 1 3
M  V30 3 1 1 4
M  V30 4 1 1 5
M  V30 5 1 4 6
M  V30 6 2 6 7
M  V30 7 1 6 8
M  V30 8 1 7 9
M  V30 9 2 8 10
M  V30 10 2 9 11
M  V30 11 1 9 12
M  V30 12 1 11 13
M  V30 13 1 12 14
M  V30 14 1 12 15
M  V30 15 1 12 16
M  V30 16 1 13 17
M  V30 17 1 17 18
M  V30 18 2 18 19
M  V30 19 1 18 20
M  V30 20 2 20 21
M  V30 21 1 20 22
M  V30 22 1 21 23
M  V30 23 2 22 24
M  V30 24 2 23 25
M  V30 25 1 23 26
M  V30 26 1 25 27
M  V30 27 2 26 28
M  V30 28 1 27 29
M  V30 29 1 29 30
M  V30 30 2 30 31
M  V30 31 1 30 32
M  V30 32 1 31 33
M  V30 33 2 32 34
M  V30 34 1 33 35
M  V30 35 2 33 36
M  V30 36 1 10 11
M  V30 37 1 24 25
M  V30 38 1 27 28
M  V30 39 1 34 36
M  V30 END BOND
M  V30 END CTAB
M  END
>  <Molecule ChEMBL ID>
CHEMBL5090821

>  <Smiles>
CS(=O)(=O)Nc1ccc(CNC(=O)c2ccc3c(ccn3Cc3cccc(F)c3)c2)c(C(F)(F)F)c1

>  <IC50_nM>
1620

>  <Assay Description>
Partial agonist activity at recombinant sGSF-PPARgamma (unknown origin) assessed as reduction in rosiglitazone induced CBP-1 recruitment incubated for 1 hr by HTRF competitive assay

$$$$
CHEMBL473953
Actelion Java MolfileCreator 2.0

  0  0  0  0  0  0              0 V3000
M  V30 BEGIN CTAB
M  V30 COUNTS 36 40 0 0 0
M  V30 BEGIN ATOM
M  V30 1 O 5.3463 -5.9306 0.0 0
M  V30 2 C 6.4627 -4.9254 0.0 0
M  V30 3 O 6.0957 -3.5256 0.0 0
M  V30 4 C 7.8914 -5.3896 0.0 0
M  V30 5 C 9.1067 -4.5066 0.0 0
M  V30 6 C 8.3556 -6.8183 0.0 0
M  V30 7 N 10.3221 -5.3896 0.0 0
M  V30 8 C 9.1067 -3.0044 0.0 0
M  V30 9 N 9.8579 -6.8183 0.0 0
M  V30 10 C 11.7508 -4.9254 0.0 0
M  V30 11 C 7.8058 -2.2533 0.0 0
M  V30 12 C 12.0631 -3.456 0.0 0
M  V30 13 C 12.8672 -5.9306 0.0 0
M  V30 14 C 7.8058 -0.7511 0.0 0
M  V30 15 C 6.5321 -2.9696 0.0 0
M  V30 16 C 13.4918 -2.9918 0.0 0
M  V30 17 C 14.2959 -5.4664 0.0 0
M  V30 18 C 6.5048 0.0 0.0 0
M  V30 19 C 5.2038 -2.2533 0.0 0
M  V30 20 C 14.6082 -3.997 0.0 0
M  V30 21 C 5.2038 -0.7511 0.0 0
M  V30 22 O 3.9029 0.0 0.0 0
M  V30 23 C 2.6019 -0.7511 0.0 0
M  V30 24 C 1.3009 0.0 0.0 0
M  V30 25 C 0.0 -0.7511 0.0 0
M  V30 26 N -1.3723 -0.1401 0.0 0
M  V30 27 C -0.157 -2.2451 0.0 0
M  V30 28 C -2.3775 -1.2564 0.0 0
M  V30 29 O -1.6264 -2.5574 0.0 0
M  V30 30 C 0.9593 -3.2503 0.0 0
M  V30 31 C -3.8715 -1.0994 0.0 0
M  V30 32 C -4.4825 0.2729 0.0 0
M  V30 33 C -4.7545 -2.3147 0.0 0
M  V30 34 C -5.9765 0.4299 0.0 0
M  V30 35 C -6.2485 -2.1577 0.0 0
M  V30 36 C -6.8595 -0.7854 0.0 0
M  V30 END ATOM
M  V30 BEGIN BOND
M  V30 1 2 1 2
M  V30 2 1 2 3
M  V30 3 1 2 4
M  V30 4 2 4 5
M  V30 5 1 4 6
M  V30 6 1 5 7
M  V30 7 1 5 8
M  V30 8 2 6 9
M  V30 9 1 7 10
M  V30 10 1 8 11
M  V30 11 2 10 12
M  V30 12 1 10 13
M  V30 13 2 11 14
M  V30 14 1 11 15
M  V30 15 1 12 16
M  V30 16 2 13 17
M  V30 17 1 14 18
M  V30 18 2 15 19
M  V30 19 2 16 20
M  V30 20 2 18 21
M  V30 21 1 21 22
M  V30 22 1 22 23
M  V30 23 1 23 24
M  V30 24 1 24 25
M  V30 25 1 25 26
M  V30 26 2 25 27
M  V30 27 2 26 28
M  V30 28 1 27 29
M  V30 29 1 27 30
M  V30 30 1 28 31
M  V30 31 2 31 32
M  V30 32 1 31 33
M  V30 33 1 32 34
M  V30 34 2 33 35
M  V30 35 2 34 36
M  V30 36 1 7 9
M  V30 37 1 17 20
M  V30 38 1 19 21
M  V30 39 1 28 29
M  V30 40 1 35 36
M  V30 END BOND
M  V30 END CTAB
M  END
>  <Molecule ChEMBL ID>
CHEMBL473953

>  <Smiles>
Cc1oc(-c2ccccc2)nc1CCOc1ccc(Cc2c(C(=O)O)cnn2-c2ccccc2)cc1

>  <IC50_nM>
1670

>  <Assay Description>
Binding affinity to PPARgamma by fluorescence polarization assay

$$$$
CHEMBL473961
Actelion Java MolfileCreator 2.0

  0  0  0  0  0  0              0 V3000
M  V30 BEGIN CTAB
M  V30 COUNTS 31 34 0 0 0
M  V30 BEGIN ATOM
M  V30 1 O 9.0007 1.1939 0.0 0
M  V30 2 C 8.0496 0.8848 0.0 0
M  V30 3 O 7.3065 1.554 0.0 0
M  V30 4 C 7.8417 -0.0932 0.0 0
M  V30 5 C 6.9282 -0.5 0.0 0
M  V30 6 C 8.5108 -0.8364 0.0 0
M  V30 7 C 7.0327 -1.4945 0.0 0
M  V30 8 C 6.0621 0.0 0.0 0
M  V30 9 N 8.0108 -1.7024 0.0 0
M  V30 10 C 5.1961 -0.5 0.0 0
M  V30 11 C 8.4176 -2.6159 0.0 0
M  V30 12 C 4.3301 0.0 0.0 0
M  V30 13 C 5.1961 -1.4999 0.0 0
M  V30 14 C 3.4641 -0.5 0.0 0
M  V30 15 C 4.3301 -1.9999 0.0 0
M  V30 16 O 2.598 0.0 0.0 0
M  V30 17 C 3.4641 -1.4999 0.0 0
M  V30 18 C 1.732 -0.5 0.0 0
M  V30 19 C 0.866 0.0 0.0 0
M  V30 20 C 0.0 -0.5 0.0 0
M  V30 21 N -0.9135 -0.0932 0.0 0
M  V30 22 C -0.1045 -1.4945 0.0 0
M  V30 23 C -1.5826 -0.8364 0.0 0
M  V30 24 O -1.0826 -1.7024 0.0 0
M  V30 25 C 0.6386 -2.1636 0.0 0
M  V30 26 C -2.5771 -0.7318 0.0 0
M  V30 27 C -2.9839 0.1816 0.0 0
M  V30 28 C -3.1649 -1.5408 0.0 0
M  V30 29 C -3.9784 0.2861 0.0 0
M  V30 30 C -4.1595 -1.4363 0.0 0
M  V30 31 C -4.5662 -0.5228 0.0 0
M  V30 END ATOM
M  V30 BEGIN BOND
M  V30 1 2 1 2
M  V30 2 1 2 3
M  V30 3 1 2 4
M  V30 4 1 4 5
M  V30 5 2 4 6
M  V30 6 2 5 7
M  V30 7 1 5 8
M  V30 8 1 6 9
M  V30 9 1 8 10
M  V30 10 1 9 11
M  V30 11 2 10 12
M  V30 12 1 10 13
M  V30 13 1 12 14
M  V30 14 2 13 15
M  V30 15 1 14 16
M  V30 16 2 14 17
M  V30 17 1 16 18
M  V30 18 1 18 19
M  V30 19 1 19 20
M  V30 20 1 20 21
M  V30 21 2 20 22
M  V30 22 2 21 23
M  V30 23 1 22 24
M  V30 24 1 22 25
M  V30 25 1 23 26
M  V30 26 2 26 27
M  V30 27 1 26 28
M  V30 28 1 27 29
M  V30 29 2 28 30
M  V30 30 2 29 31
M  V30 31 1 7 9
M  V30 32 1 15 17
M  V30 33 1 23 24
M  V30 34 1 30 31
M  V30 END BOND
M  V30 END CTAB
M  END
>  <Molecule ChEMBL ID>
CHEMBL473961

>  <Smiles>
Cc1oc(-c2ccccc2)nc1CCOc1cccc(Cc2cn(C)cc2C(=O)O)c1

>  <IC50_nM>
1670

>  <Assay Description>
Binding affinity to PPARgamma by fluorescence polarization assay

$$$$
CHEMBL198786
Actelion Java MolfileCreator 2.0

  0  0  0  0  0  0              0 V3000
M  V30 BEGIN CTAB
M  V30 COUNTS 36 40 0 0 0
M  V30 BEGIN ATOM
M  V30 1 O 6.8835 -5.4154 0.0 0
M  V30 2 C 6.2143 -4.6723 0.0 0
M  V30 3 O 5.2362 -4.8802 0.0 0
M  V30 4 C 6.5233 -3.7212 0.0 0
M  V30 5 N 5.8542 -2.9781 0.0 0
M  V30 6 C 6.0621 -2.0 0.0 0
M  V30 7 C 4.8597 -3.0826 0.0 0
M  V30 8 C 5.1961 -1.5 0.0 0
M  V30 9 C 6.9282 -1.5 0.0 0
M  V30 10 C 4.453 -2.1691 0.0 0
M  V30 11 C 5.1961 -0.5 0.0 0
M  V30 12 C 6.9282 -0.5 0.0 0
M  V30 13 O 4.3301 0.0 0.0 0
M  V30 14 C 6.0621 0.0 0.0 0
M  V30 15 C 3.4641 -0.5 0.0 0
M  V30 16 C 2.598 0.0 0.0 0
M  V30 17 C 1.732 -0.5 0.0 0
M  V30 18 O 0.866 0.0 0.0 0
M  V30 19 C 0.0 -0.5 0.0 0
M  V30 20 C -0.866 0.0 0.0 0
M  V30 21 C 0.0 -1.5 0.0 0
M  V30 22 C -1.732 -0.4999 0.0 0
M  V30 23 C -0.866 1.0 0.0 0
M  V30 24 C -0.866 -1.9999 0.0 0
M  V30 25 N -2.6831 -0.1909 0.0 0
M  V30 26 C -1.732 -1.4999 0.0 0
M  V30 27 C 0.0 1.5 0.0 0
M  V30 28 C -3.2708 -0.9999 0.0 0
M  V30 29 C -2.6831 -1.809 0.0 0
M  V30 30 C 0.0 2.5 0.0 0
M  V30 31 C -4.2708 -0.9999 0.0 0
M  V30 32 C -4.7708 -0.1339 0.0 0
M  V30 33 C -4.7708 -1.866 0.0 0
M  V30 34 C -5.7708 -0.1339 0.0 0
M  V30 35 C -5.7708 -1.866 0.0 0
M  V30 36 C -6.2708 -0.9999 0.0 0
M  V30 END ATOM
M  V30 BEGIN BOND
M  V30 1 2 1 2
M  V30 2 1 2 3
M  V30 3 1 2 4
M  V30 4 1 4 5
M  V30 5 1 5 6
M  V30 6 1 5 7
M  V30 7 2 6 8
M  V30 8 1 6 9
M  V30 9 2 7 10
M  V30 10 1 8 11
M  V30 11 2 9 12
M  V30 12 1 11 13
M  V30 13 2 11 14
M  V30 14 1 13 15
M  V30 15 1 15 16
M  V30 16 1 16 17
M  V30 17 1 17 18
M  V30 18 1 18 19
M  V30 19 2 19 20
M  V30 20 1 19 21
M  V30 21 1 20 22
M  V30 22 1 20 23
M  V30 23 2 21 24
M  V30 24 1 22 25
M  V30 25 2 22 26
M  V30 26 1 23 27
M  V30 27 1 25 28
M  V30 28 1 26 29
M  V30 29 1 27 30
M  V30 30 1 28 31
M  V30 31 2 31 32
M  V30 32 1 31 33
M  V30 33 1 32 34
M  V30 34 2 33 35
M  V30 35 2 34 36
M  V30 36 1 8 10
M  V30 37 1 12 14
M  V30 38 1 24 26
M  V30 39 2 28 29
M  V30 40 1 35 36
M  V30 END BOND
M  V30 END CTAB
M  END
>  <Molecule ChEMBL ID>
CHEMBL198786

>  <Smiles>
CCCc1c(OCCCOc2cccc3c2ccn3CC(=O)O)ccc2cc(-c3ccccc3)[nH]c12

>  <IC50_nM>
1679

>  <Assay Description>
Displacement of [3H]rosiglitazone from human PPAR gamma by SPA assay

$$$$
CHEMBL561776
Actelion Java MolfileCreator 2.0

  0  0  0  0  0  0              0 V3000
M  V30 BEGIN CTAB
M  V30 COUNTS 23 22 0 0 0
M  V30 BEGIN ATOM
M  V30 1 O 12.9903 0.0 0.0 0
M  V30 2 N 12.1243 -0.5 0.0 0 CHG=1
M  V30 3 O 12.1243 -1.5 0.0 0 CHG=-1
M  V30 4 C 11.2583 0.0 0.0 0
M  V30 5 C 10.3923 -0.5 0.0 0
M  V30 6 C 11.2583 1.0 0.0 0
M  V30 7 C 9.5262 0.0 0.0 0
M  V30 8 C 12.1243 1.4999 0.0 0
M  V30 9 C 8.6602 -0.5 0.0 0
M  V30 10 C 12.1243 2.4999 0.0 0
M  V30 11 C 7.7942 0.0 0.0 0
M  V30 12 C 12.9903 2.9999 0.0 0
M  V30 13 C 6.9282 -0.5 0.0 0
M  V30 14 O 12.9903 3.9999 0.0 0
M  V30 15 O 13.8564 2.4999 0.0 0
M  V30 16 C 6.0621 0.0 0.0 0
M  V30 17 C 5.1961 -0.5 0.0 0
M  V30 18 C 4.3301 0.0 0.0 0
M  V30 19 C 3.4641 -0.5 0.0 0
M  V30 20 C 2.598 0.0 0.0 0
M  V30 21 C 1.732 -0.5 0.0 0
M  V30 22 C 0.866 0.0 0.0 0
M  V30 23 C 0.0 -0.5 0.0 0
M  V30 END ATOM
M  V30 BEGIN BOND
M  V30 1 2 1 2
M  V30 2 1 2 3
M  V30 3 1 2 4
M  V30 4 2 4 5
M  V30 5 1 4 6
M  V30 6 1 5 7
M  V30 7 1 6 8
M  V30 8 1 7 9
M  V30 9 1 8 10
M  V30 10 1 9 11
M  V30 11 1 10 12
M  V30 12 1 11 13
M  V30 13 2 12 14
M  V30 14 1 12 15
M  V30 15 1 13 16
M  V30 16 1 16 17
M  V30 17 1 17 18
M  V30 18 1 18 19
M  V30 19 1 19 20
M  V30 20 1 20 21
M  V30 21 1 21 22
M  V30 22 1 22 23
M  V30 END BOND
M  V30 END CTAB
M  END
>  <Molecule ChEMBL ID>
CHEMBL561776

>  <Smiles>
CCCCCCCCCCCC/C=C(\CCCC(=O)O)[N+](=O)[O-]

>  <IC50_nM>
1680

>  <Assay Description>
Displacement of [3H2]nTZD3 from GST-tagged human recombinant PPARgamma by scintillation proximity assay

$$$$
CHEMBL344282
Actelion Java MolfileCreator 2.0

  0  0  0  0  0  0              0 V3000
M  V30 BEGIN CTAB
M  V30 COUNTS 32 34 0 0 0
M  V30 BEGIN ATOM
M  V30 1 O 7.4302 -3.9239 0.0 0
M  V30 2 C 6.8201 -2.5536 0.0 0
M  V30 3 N 7.5701 -1.2546 0.0 0
M  V30 4 N 5.3529 -2.2417 0.0 0
M  V30 5 N 6.5664 -0.1398 0.0 0
M  V30 6 C 9.0619 -1.0978 0.0 0
M  V30 7 C 5.1961 -0.75 0.0 0
M  V30 8 C 4.2382 -3.2454 0.0 0
M  V30 9 C 9.672 0.2724 0.0 0
M  V30 10 C 3.8971 0.0 0.0 0
M  V30 11 C 11.1638 0.4292 0.0 0
M  V30 12 C 8.7903 1.486 0.0 0
M  V30 13 C 2.598 -0.75 0.0 0
M  V30 14 C 11.7739 1.7996 0.0 0
M  V30 15 C 9.4004 2.8563 0.0 0
M  V30 16 C 1.299 0.0 0.0 0
M  V30 17 C 10.8922 3.0131 0.0 0
M  V30 18 C 13.2657 1.9564 0.0 0
M  V30 19 C 0.0 -0.75 0.0 0
M  V30 20 C 11.5023 4.3834 0.0 0
M  V30 21 C -1.299 0.0 0.0 0
M  V30 22 C 0.0 -2.25 0.0 0
M  V30 23 C -2.598 -0.75 0.0 0
M  V30 24 C -1.299 -3.0 0.0 0
M  V30 25 C -2.598 -2.25 0.0 0
M  V30 26 O -3.8971 -3.0 0.0 0
M  V30 27 C -3.8971 -4.5 0.0 0
M  V30 28 C -5.1961 -5.25 0.0 0
M  V30 29 C -3.1471 -5.799 0.0 0
M  V30 30 C -2.3971 -4.4999 0.0 0
M  V30 31 O -6.4951 -4.5 0.0 0
M  V30 32 O -5.1961 -6.75 0.0 0
M  V30 END ATOM
M  V30 BEGIN BOND
M  V30 1 2 1 2
M  V30 2 1 2 3
M  V30 3 1 2 4
M  V30 4 1 3 5
M  V30 5 1 3 6
M  V30 6 1 4 7
M  V30 7 1 4 8
M  V30 8 1 6 9
M  V30 9 1 7 10
M  V30 10 2 9 11
M  V30 11 1 9 12
M  V30 12 1 10 13
M  V30 13 1 11 14
M  V30 14 2 12 15
M  V30 15 1 13 16
M  V30 16 2 14 17
M  V30 17 1 14 18
M  V30 18 1 16 19
M  V30 19 1 17 20
M  V30 20 2 19 21
M  V30 21 1 19 22
M  V30 22 1 21 23
M  V30 23 2 22 24
M  V30 24 2 23 25
M  V30 25 1 25 26
M  V30 26 1 26 27
M  V30 27 1 27 28
M  V30 28 1 27 29
M  V30 29 1 27 30
M  V30 30 2 28 31
M  V30 31 1 28 32
M  V30 32 2 5 7
M  V30 33 1 15 17
M  V30 34 1 24 25
M  V30 END BOND
M  V30 END CTAB
M  END
>  <Molecule ChEMBL ID>
CHEMBL344282

>  <Smiles>
Cc1ccc(Cn2nc(CCCc3ccc(OC(C)(C)C(=O)O)cc3)n(C)c2=O)cc1C

>  <IC50_nM>
1698.24

>  <Assay Description>
Agonist activity at PPARgamma

$$$$
CHEMBL149438
Actelion Java MolfileCreator 2.0

  0  0  0  0  0  0              0 V3000
M  V30 BEGIN CTAB
M  V30 COUNTS 32 34 0 0 0
M  V30 BEGIN ATOM
M  V30 1 O 7.4302 -3.9239 0.0 0
M  V30 2 C 6.8201 -2.5536 0.0 0
M  V30 3 N 7.5701 -1.2546 0.0 0
M  V30 4 N 5.3529 -2.2417 0.0 0
M  V30 5 N 6.5664 -0.1398 0.0 0
M  V30 6 C 9.0619 -1.0978 0.0 0
M  V30 7 C 5.1961 -0.75 0.0 0
M  V30 8 C 4.2382 -3.2454 0.0 0
M  V30 9 C 9.672 0.2724 0.0 0
M  V30 10 C 3.8971 0.0 0.0 0
M  V30 11 C 2.8116 -2.7819 0.0 0
M  V30 12 C 11.1638 0.4292 0.0 0
M  V30 13 C 8.7903 1.486 0.0 0
M  V30 14 C 2.598 -0.75 0.0 0
M  V30 15 C 1.6969 -3.7856 0.0 0
M  V30 16 C 11.7739 1.7996 0.0 0
M  V30 17 C 9.4004 2.8563 0.0 0
M  V30 18 C 1.299 0.0 0.0 0
M  V30 19 C 10.8922 3.0131 0.0 0
M  V30 20 C 0.0 -0.75 0.0 0
M  V30 21 C -1.299 0.0 0.0 0
M  V30 22 C 0.0 -2.25 0.0 0
M  V30 23 C -2.598 -0.75 0.0 0
M  V30 24 C -1.299 -3.0 0.0 0
M  V30 25 C -2.598 -2.25 0.0 0
M  V30 26 O -3.8971 -3.0 0.0 0
M  V30 27 C -3.8971 -4.5 0.0 0
M  V30 28 C -5.1961 -5.25 0.0 0
M  V30 29 C -3.1471 -5.799 0.0 0
M  V30 30 C -2.3971 -4.4999 0.0 0
M  V30 31 O -6.4951 -4.5 0.0 0
M  V30 32 O -5.1961 -6.75 0.0 0
M  V30 END ATOM
M  V30 BEGIN BOND
M  V30 1 2 1 2
M  V30 2 1 2 3
M  V30 3 1 2 4
M  V30 4 1 3 5
M  V30 5 1 3 6
M  V30 6 1 4 7
M  V30 7 1 4 8
M  V30 8 1 6 9
M  V30 9 1 7 10
M  V30 10 1 8 11
M  V30 11 1 9 12
M  V30 12 1 9 13
M  V30 13 1 10 14
M  V30 14 1 11 15
M  V30 15 1 12 16
M  V30 16 1 13 17
M  V30 17 1 14 18
M  V30 18 1 16 19
M  V30 19 1 18 20
M  V30 20 2 20 21
M  V30 21 1 20 22
M  V30 22 1 21 23
M  V30 23 2 22 24
M  V30 24 2 23 25
M  V30 25 1 25 26
M  V30 26 1 26 27
M  V30 27 1 27 28
M  V30 28 1 27 29
M  V30 29 1 27 30
M  V30 30 2 28 31
M  V30 31 1 28 32
M  V30 32 2 5 7
M  V30 33 1 17 19
M  V30 34 1 24 25
M  V30 END BOND
M  V30 END CTAB
M  END
>  <Molecule ChEMBL ID>
CHEMBL149438

>  <Smiles>
CCCn1c(CCCc2ccc(OC(C)(C)C(=O)O)cc2)nn(CC2CCCCC2)c1=O

>  <IC50_nM>
1698.24

>  <Assay Description>
Agonist activity at PPARgamma

$$$$
CHEMBL344282
Actelion Java MolfileCreator 2.0

  0  0  0  0  0  0              0 V3000
M  V30 BEGIN CTAB
M  V30 COUNTS 32 34 0 0 0
M  V30 BEGIN ATOM
M  V30 1 O 7.4302 -3.9239 0.0 0
M  V30 2 C 6.8201 -2.5536 0.0 0
M  V30 3 N 7.5701 -1.2546 0.0 0
M  V30 4 N 5.3529 -2.2417 0.0 0
M  V30 5 N 6.5664 -0.1398 0.0 0
M  V30 6 C 9.0619 -1.0978 0.0 0
M  V30 7 C 5.1961 -0.75 0.0 0
M  V30 8 C 4.2382 -3.2454 0.0 0
M  V30 9 C 9.672 0.2724 0.0 0
M  V30 10 C 3.8971 0.0 0.0 0
M  V30 11 C 11.1638 0.4292 0.0 0
M  V30 12 C 8.7903 1.486 0.0 0
M  V30 13 C 2.598 -0.75 0.0 0
M  V30 14 C 11.7739 1.7996 0.0 0
M  V30 15 C 9.4004 2.8563 0.0 0
M  V30 16 C 1.299 0.0 0.0 0
M  V30 17 C 10.8922 3.0131 0.0 0
M  V30 18 C 13.2657 1.9564 0.0 0
M  V30 19 C 0.0 -0.75 0.0 0
M  V30 20 C 11.5023 4.3834 0.0 0
M  V30 21 C -1.299 0.0 0.0 0
M  V30 22 C 0.0 -2.25 0.0 0
M  V30 23 C -2.598 -0.75 0.0 0
M  V30 24 C -1.299 -3.0 0.0 0
M  V30 25 C -2.598 -2.25 0.0 0
M  V30 26 O -3.8971 -3.0 0.0 0
M  V30 27 C -3.8971 -4.5 0.0 0
M  V30 28 C -5.1961 -5.25 0.0 0
M  V30 29 C -3.1471 -5.799 0.0 0
M  V30 30 C -2.3971 -4.4999 0.0 0
M  V30 31 O -6.4951 -4.5 0.0 0
M  V30 32 O -5.1961 -6.75 0.0 0
M  V30 END ATOM
M  V30 BEGIN BOND
M  V30 1 2 1 2
M  V30 2 1 2 3
M  V30 3 1 2 4
M  V30 4 1 3 5
M  V30 5 1 3 6
M  V30 6 1 4 7
M  V30 7 1 4 8
M  V30 8 1 6 9
M  V30 9 1 7 10
M  V30 10 2 9 11
M  V30 11 1 9 12
M  V30 12 1 10 13
M  V30 13 1 11 14
M  V30 14 2 12 15
M  V30 15 1 13 16
M  V30 16 2 14 17
M  V30 17 1 14 18
M  V30 18 1 16 19
M  V30 19 1 17 20
M  V30 20 2 19 21
M  V30 21 1 19 22
M  V30 22 1 21 23
M  V30 23 2 22 24
M  V30 24 2 23 25
M  V30 25 1 25 26
M  V30 26 1 26 27
M  V30 27 1 27 28
M  V30 28 1 27 29
M  V30 29 1 27 30
M  V30 30 2 28 31
M  V30 31 1 28 32
M  V30 32 2 5 7
M  V30 33 1 15 17
M  V30 34 1 24 25
M  V30 END BOND
M  V30 END CTAB
M  END
>  <Molecule ChEMBL ID>
CHEMBL344282

>  <Smiles>
Cc1ccc(Cn2nc(CCCc3ccc(OC(C)(C)C(=O)O)cc3)n(C)c2=O)cc1C

>  <IC50_nM>
1700

>  <Assay Description>
Inhibitory activity of compound against the binding of human Peroxisome proliferator activated receptor gamma was determined

$$$$
CHEMBL149438
Actelion Java MolfileCreator 2.0

  0  0  0  0  0  0              0 V3000
M  V30 BEGIN CTAB
M  V30 COUNTS 32 34 0 0 0
M  V30 BEGIN ATOM
M  V30 1 O 7.4302 -3.9239 0.0 0
M  V30 2 C 6.8201 -2.5536 0.0 0
M  V30 3 N 7.5701 -1.2546 0.0 0
M  V30 4 N 5.3529 -2.2417 0.0 0
M  V30 5 N 6.5664 -0.1398 0.0 0
M  V30 6 C 9.0619 -1.0978 0.0 0
M  V30 7 C 5.1961 -0.75 0.0 0
M  V30 8 C 4.2382 -3.2454 0.0 0
M  V30 9 C 9.672 0.2724 0.0 0
M  V30 10 C 3.8971 0.0 0.0 0
M  V30 11 C 2.8116 -2.7819 0.0 0
M  V30 12 C 11.1638 0.4292 0.0 0
M  V30 13 C 8.7903 1.486 0.0 0
M  V30 14 C 2.598 -0.75 0.0 0
M  V30 15 C 1.6969 -3.7856 0.0 0
M  V30 16 C 11.7739 1.7996 0.0 0
M  V30 17 C 9.4004 2.8563 0.0 0
M  V30 18 C 1.299 0.0 0.0 0
M  V30 19 C 10.8922 3.0131 0.0 0
M  V30 20 C 0.0 -0.75 0.0 0
M  V30 21 C -1.299 0.0 0.0 0
M  V30 22 C 0.0 -2.25 0.0 0
M  V30 23 C -2.598 -0.75 0.0 0
M  V30 24 C -1.299 -3.0 0.0 0
M  V30 25 C -2.598 -2.25 0.0 0
M  V30 26 O -3.8971 -3.0 0.0 0
M  V30 27 C -3.8971 -4.5 0.0 0
M  V30 28 C -5.1961 -5.25 0.0 0
M  V30 29 C -3.1471 -5.799 0.0 0
M  V30 30 C -2.3971 -4.4999 0.0 0
M  V30 31 O -6.4951 -4.5 0.0 0
M  V30 32 O -5.1961 -6.75 0.0 0
M  V30 END ATOM
M  V30 BEGIN BOND
M  V30 1 2 1 2
M  V30 2 1 2 3
M  V30 3 1 2 4
M  V30 4 1 3 5
M  V30 5 1 3 6
M  V30 6 1 4 7
M  V30 7 1 4 8
M  V30 8 1 6 9
M  V30 9 1 7 10
M  V30 10 1 8 11
M  V30 11 1 9 12
M  V30 12 1 9 13
M  V30 13 1 10 14
M  V30 14 1 11 15
M  V30 15 1 12 16
M  V30 16 1 13 17
M  V30 17 1 14 18
M  V30 18 1 16 19
M  V30 19 1 18 20
M  V30 20 2 20 21
M  V30 21 1 20 22
M  V30 22 1 21 23
M  V30 23 2 22 24
M  V30 24 2 23 25
M  V30 25 1 25 26
M  V30 26 1 26 27
M  V30 27 1 27 28
M  V30 28 1 27 29
M  V30 29 1 27 30
M  V30 30 2 28 31
M  V30 31 1 28 32
M  V30 32 2 5 7
M  V30 33 1 17 19
M  V30 34 1 24 25
M  V30 END BOND
M  V30 END CTAB
M  END
>  <Molecule ChEMBL ID>
CHEMBL149438

>  <Smiles>
CCCn1c(CCCc2ccc(OC(C)(C)C(=O)O)cc2)nn(CC2CCCCC2)c1=O

>  <IC50_nM>
1700

>  <Assay Description>
Inhibitory activity of compound against the binding of human Peroxisome proliferator activated receptor gamma was determined

$$$$
CHEMBL114286
Actelion Java MolfileCreator 2.0

  0  0  0  0  0  0              0 V3000
M  V30 BEGIN CTAB
M  V30 COUNTS 35 38 0 0 0
M  V30 BEGIN ATOM
M  V30 1 O 8.6602 -4.4999 0.0 0
M  V30 2 C 8.6602 -3.5 0.0 0
M  V30 3 O 9.5262 -2.9999 0.0 0
M  V30 4 C 7.7942 -2.9999 0.0 0 CFG=1
M  V30 5 O 7.7942 -1.9999 0.0 0
M  V30 6 C 6.9282 -3.4999 0.0 0
M  V30 7 C 7.7942 -3.9999 0.0 0
M  V30 8 C 6.9282 -1.4999 0.0 0
M  V30 9 C 6.0621 -2.9999 0.0 0
M  V30 10 C 6.0621 -1.9999 0.0 0
M  V30 11 C 6.9282 -0.5 0.0 0
M  V30 12 C 5.1961 -1.4999 0.0 0
M  V30 13 C 6.0621 0.0 0.0 0
M  V30 14 C 5.1961 -0.5 0.0 0
M  V30 15 O 4.3301 0.0 0.0 0
M  V30 16 C 3.4641 -0.5 0.0 0
M  V30 17 C 2.598 0.0 0.0 0
M  V30 18 C 1.732 -0.5 0.0 0
M  V30 19 O 0.866 0.0 0.0 0
M  V30 20 C 0.0 -0.5 0.0 0
M  V30 21 C -0.866 0.0 0.0 0
M  V30 22 C 0.0 -1.4999 0.0 0
M  V30 23 C -1.732 -0.4999 0.0 0
M  V30 24 C -0.866 1.0 0.0 0
M  V30 25 C -0.866 -1.9999 0.0 0
M  V30 26 C -1.732 -1.4999 0.0 0
M  V30 27 C 0.0 1.5 0.0 0
M  V30 28 O -2.598 -1.9999 0.0 0
M  V30 29 C 0.0 2.5 0.0 0
M  V30 30 C -2.598 -2.9999 0.0 0
M  V30 31 C -3.4641 -3.4999 0.0 0
M  V30 32 C -1.732 -3.4999 0.0 0
M  V30 33 C -3.4641 -4.4999 0.0 0
M  V30 34 C -1.732 -4.4999 0.0 0
M  V30 35 C -2.598 -4.9999 0.0 0
M  V30 END ATOM
M  V30 BEGIN BOND
M  V30 1 2 1 2
M  V30 2 1 2 3
M  V30 3 1 2 4
M  V30 4 1 4 5
M  V30 5 1 4 6
M  V30 6 1 4 7 CFG=1
M  V30 7 1 5 8
M  V30 8 1 6 9
M  V30 9 2 8 10
M  V30 10 1 8 11
M  V30 11 1 10 12
M  V30 12 2 11 13
M  V30 13 2 12 14
M  V30 14 1 14 15
M  V30 15 1 15 16
M  V30 16 1 16 17
M  V30 17 1 17 18
M  V30 18 1 18 19
M  V30 19 1 19 20
M  V30 20 2 20 21
M  V30 21 1 20 22
M  V30 22 1 21 23
M  V30 23 1 21 24
M  V30 24 2 22 25
M  V30 25 2 23 26
M  V30 26 1 24 27
M  V30 27 1 26 28
M  V30 28 1 27 29
M  V30 29 1 28 30
M  V30 30 2 30 31
M  V30 31 1 30 32
M  V30 32 1 31 33
M  V30 33 2 32 34
M  V30 34 2 33 35
M  V30 35 1 9 10
M  V30 36 1 13 14
M  V30 37 1 25 26
M  V30 38 1 34 35
M  V30 END BOND
M  V30 BEGIN COLLECTION
M  V30 MDLV30/STERAC1 ATOMS=(1 4)
M  V30 END COLLECTION
M  V30 END CTAB
M  END
>  <Molecule ChEMBL ID>
CHEMBL114286

>  <Smiles>
CCCc1cc(Oc2ccccc2)ccc1OCCCOc1ccc2c(c1)CCC(C)(C(=O)O)O2

>  <IC50_nM>
1700

>  <Assay Description>
In vitro binding affinity for human peroxisome proliferator activated receptor gamma using scintillation proximity assay (SPA)

$$$$
CHEMBL595
Actelion Java MolfileCreator 2.0

  0  0  0  0  0  0              0 V3000
M  V30 BEGIN CTAB
M  V30 COUNTS 25 27 0 0 0
M  V30 BEGIN ATOM
M  V30 1 S 5.2531 -3.5877 0.0 0
M  V30 2 C 5.5621 -4.5388 0.0 0
M  V30 3 C 6.0621 -3.0 0.0 0 CFG=2
M  V30 4 O 4.9743 -5.3478 0.0 0
M  V30 5 N 6.5621 -4.5388 0.0 0
M  V30 6 C 6.8711 -3.5877 0.0 0
M  V30 7 C 6.0621 -1.9999 0.0 0
M  V30 8 O 7.8222 -3.2787 0.0 0
M  V30 9 C 5.1961 -1.4999 0.0 0
M  V30 10 C 5.1961 -0.5 0.0 0
M  V30 11 C 4.3301 -1.9999 0.0 0
M  V30 12 C 4.3301 0.0 0.0 0
M  V30 13 C 3.4641 -1.5 0.0 0
M  V30 14 C 3.4641 -0.5 0.0 0
M  V30 15 O 2.598 0.0 0.0 0
M  V30 16 C 1.732 -0.5 0.0 0
M  V30 17 C 0.866 0.0 0.0 0
M  V30 18 C 0.0 -0.5 0.0 0
M  V30 19 N -0.866 0.0 0.0 0
M  V30 20 C 0.0 -1.4999 0.0 0
M  V30 21 C -1.732 -0.4999 0.0 0
M  V30 22 C -0.866 -1.9999 0.0 0
M  V30 23 C -1.732 -1.4999 0.0 0
M  V30 24 C -2.598 -1.9999 0.0 0
M  V30 25 C -2.598 -2.9999 0.0 0
M  V30 END ATOM
M  V30 BEGIN BOND
M  V30 1 1 1 2
M  V30 2 1 1 3
M  V30 3 2 2 4
M  V30 4 1 2 5
M  V30 5 1 3 6
M  V30 6 1 3 7 CFG=1
M  V30 7 2 6 8
M  V30 8 1 7 9
M  V30 9 2 9 10
M  V30 10 1 9 11
M  V30 11 1 10 12
M  V30 12 2 11 13
M  V30 13 2 12 14
M  V30 14 1 14 15
M  V30 15 1 15 16
M  V30 16 1 16 17
M  V30 17 1 17 18
M  V30 18 2 18 19
M  V30 19 1 18 20
M  V30 20 1 19 21
M  V30 21 2 20 22
M  V30 22 2 21 23
M  V30 23 1 23 24
M  V30 24 1 24 25
M  V30 25 1 5 6
M  V30 26 1 13 14
M  V30 27 1 22 23
M  V30 END BOND
M  V30 BEGIN COLLECTION
M  V30 MDLV30/STERAC1 ATOMS=(1 3)
M  V30 END COLLECTION
M  V30 END CTAB
M  END
>  <Molecule ChEMBL ID>
CHEMBL595

>  <Smiles>
CCc1ccc(CCOc2ccc(CC3SC(=O)NC3=O)cc2)nc1

>  <IC50_nM>
1700

>  <Assay Description>
Displacement of FITC-NCoR1 peptide from human 6His-tagged PPARgamma isoform 1 LBD (203 to 477 residues) expressed in Escherichia coli BL21(DE3) after 1 hr by FITC/TR-FRET assay

$$$$
CHEMBL4866821
Actelion Java MolfileCreator 2.0

  0  0  0  0  0  0              0 V3000
M  V30 BEGIN CTAB
M  V30 COUNTS 32 35 0 0 0
M  V30 BEGIN ATOM
M  V30 1 Cl 1.732 1.4999 0.0 0
M  V30 2 C 1.732 2.4999 0.0 0
M  V30 3 C 2.598 3.0 0.0 0
M  V30 4 C 0.866 2.9999 0.0 0
M  V30 5 C 3.4641 2.5 0.0 0
M  V30 6 C 2.598 3.9999 0.0 0
M  V30 7 C 0.866 3.9999 0.0 0
M  V30 8 O 4.3301 3.0 0.0 0
M  V30 9 N 3.4641 1.4999 0.0 0
M  V30 10 C 1.732 4.4999 0.0 0
M  V30 11 C 4.3301 1.0 0.0 0
M  V30 12 C 4.3301 0.0 0.0 0
M  V30 13 C 5.1961 1.5 0.0 0
M  V30 14 C 3.4641 -0.5 0.0 0
M  V30 15 C 5.1961 -0.4999 0.0 0
M  V30 16 C 6.0621 1.0 0.0 0
M  V30 17 O 3.4641 -1.5 0.0 0
M  V30 18 N 2.598 0.0 0.0 0
M  V30 19 C 6.0621 0.0 0.0 0
M  V30 20 N 1.732 -0.5 0.0 0
M  V30 21 C 0.866 0.0 0.0 0
M  V30 22 C 0.0 -0.5 0.0 0
M  V30 23 C -0.866 0.0 0.0 0
M  V30 24 C 0.0 -1.4999 0.0 0
M  V30 25 O -0.866 1.0 0.0 0
M  V30 26 C -1.732 -0.4999 0.0 0
M  V30 27 C -0.866 -1.9999 0.0 0
M  V30 28 C 0.866 -1.9999 0.0 0
M  V30 29 C -1.732 -1.4999 0.0 0
M  V30 30 C -0.866 -2.9999 0.0 0
M  V30 31 C 0.866 -3.0 0.0 0
M  V30 32 C 0.0 -3.4999 0.0 0
M  V30 END ATOM
M  V30 BEGIN BOND
M  V30 1 1 1 2
M  V30 2 2 2 3
M  V30 3 1 2 4
M  V30 4 1 3 5
M  V30 5 1 3 6
M  V30 6 2 4 7
M  V30 7 2 5 8
M  V30 8 1 5 9
M  V30 9 2 6 10
M  V30 10 1 9 11
M  V30 11 2 11 12
M  V30 12 1 11 13
M  V30 13 1 12 14
M  V30 14 1 12 15
M  V30 15 2 13 16
M  V30 16 2 14 17
M  V30 17 1 14 18
M  V30 18 2 15 19
M  V30 19 1 18 20
M  V30 20 2 20 21
M  V30 21 1 21 22
M  V30 22 2 22 23
M  V30 23 1 22 24
M  V30 24 1 23 25
M  V30 25 1 23 26
M  V30 26 1 24 27
M  V30 27 2 24 28
M  V30 28 2 26 29
M  V30 29 2 27 30
M  V30 30 1 28 31
M  V30 31 1 30 32
M  V30 32 1 7 10
M  V30 33 1 16 19
M  V30 34 1 27 29
M  V30 35 2 31 32
M  V30 END BOND
M  V30 END CTAB
M  END
>  <Molecule ChEMBL ID>
CHEMBL4866821

>  <Smiles>
O=C(Nc1ccccc1C(=O)N/N=C/c1c(O)ccc2ccccc12)c1ccccc1Cl

>  <IC50_nM>
1700

>  <Assay Description>
Antagonist activity at PPARgamma (unknown origin) expressed in human LNCaP cells assessed as suppression of pioglitazone-induced PPAR response element driven firefly luciferase activity measured after 24 hrs by dual luciferase reporter assay

$$$$
CHEMBL197527
Actelion Java MolfileCreator 2.0

  0  0  0  0  0  0              0 V3000
M  V30 BEGIN CTAB
M  V30 COUNTS 36 39 0 0 0
M  V30 BEGIN ATOM
M  V30 1 F 9.1393 -2.451 0.0 0
M  V30 2 C 8.1882 -2.76 0.0 0
M  V30 3 F 8.4972 -3.7111 0.0 0
M  V30 4 F 7.2372 -3.069 0.0 0
M  V30 5 C 7.8792 -1.809 0.0 0
M  V30 6 N 8.467 -1.0 0.0 0
M  V30 7 C 6.9282 -1.5 0.0 0
M  V30 8 O 7.8792 -0.1909 0.0 0
M  V30 9 C 6.9282 -0.5 0.0 0
M  V30 10 C 6.0621 -2.0 0.0 0
M  V30 11 C 6.0621 0.0 0.0 0
M  V30 12 C 5.1961 -1.4999 0.0 0
M  V30 13 C 5.1961 -0.5 0.0 0
M  V30 14 C 6.0621 0.9999 0.0 0
M  V30 15 O 4.3301 0.0 0.0 0
M  V30 16 C 6.9282 1.4999 0.0 0
M  V30 17 C 3.4641 -0.5 0.0 0
M  V30 18 C 6.9282 2.4999 0.0 0
M  V30 19 C 2.598 0.0 0.0 0
M  V30 20 C 1.732 -0.5 0.0 0
M  V30 21 O 0.866 0.0 0.0 0
M  V30 22 C 0.0 -0.5 0.0 0
M  V30 23 C 0.0 -1.4999 0.0 0
M  V30 24 C -0.866 0.0 0.0 0
M  V30 25 C -0.866 -1.9999 0.0 0
M  V30 26 C -1.732 -0.4999 0.0 0
M  V30 27 C -1.732 -1.4999 0.0 0
M  V30 28 C -1.0739 -2.9781 0.0 0
M  V30 29 N -2.4751 -2.1691 0.0 0
M  V30 30 C -2.0684 -3.0826 0.0 0
M  V30 31 C -3.4533 -1.9612 0.0 0 CFG=2
M  V30 32 C -3.7623 -1.0101 0.0 0
M  V30 33 C -4.1224 -2.7043 0.0 0
M  V30 34 O -3.0932 -0.267 0.0 0
M  V30 35 O -4.7405 -0.8022 0.0 0
M  V30 36 C -3.8134 -3.6554 0.0 0
M  V30 END ATOM
M  V30 BEGIN BOND
M  V30 1 1 1 2
M  V30 2 1 2 3
M  V30 3 1 2 4
M  V30 4 1 2 5
M  V30 5 2 5 6
M  V30 6 1 5 7
M  V30 7 1 6 8
M  V30 8 2 7 9
M  V30 9 1 7 10
M  V30 10 1 9 11
M  V30 11 2 10 12
M  V30 12 2 11 13
M  V30 13 1 11 14
M  V30 14 1 13 15
M  V30 15 1 14 16
M  V30 16 1 15 17
M  V30 17 1 16 18
M  V30 18 1 17 19
M  V30 19 1 19 20
M  V30 20 1 20 21
M  V30 21 1 21 22
M  V30 22 2 22 23
M  V30 23 1 22 24
M  V30 24 1 23 25
M  V30 25 2 24 26
M  V30 26 2 25 27
M  V30 27 1 25 28
M  V30 28 1 27 29
M  V30 29 2 28 30
M  V30 30 1 31 29 CFG=1
M  V30 31 1 31 32
M  V30 32 1 31 33
M  V30 33 2 32 34
M  V30 34 1 32 35
M  V30 35 1 33 36
M  V30 36 1 8 9
M  V30 37 1 12 13
M  V30 38 1 26 27
M  V30 39 1 29 30
M  V30 END BOND
M  V30 BEGIN COLLECTION
M  V30 MDLV30/STERAC1 ATOMS=(1 31)
M  V30 END COLLECTION
M  V30 END CTAB
M  END
>  <Molecule ChEMBL ID>
CHEMBL197527

>  <Smiles>
CCCc1c(OCCCOc2ccc3c(ccn3C(CC)C(=O)O)c2)ccc2c(C(F)(F)F)noc12

>  <IC50_nM>
1709

>  <Assay Description>
Displacement of [3H]rosiglitazone from human PPAR gamma by SPA assay

$$$$
CHEMBL569372
Actelion Java MolfileCreator 2.0

  0  0  0  0  0  0              0 V3000
M  V30 BEGIN CTAB
M  V30 COUNTS 23 22 0 0 0
M  V30 BEGIN ATOM
M  V30 1 O 9.5262 -2.0 0.0 0
M  V30 2 N 10.3923 -1.5 0.0 0 CHG=1
M  V30 3 O 11.2583 -2.0 0.0 0 CHG=-1
M  V30 4 C 10.3923 -0.5 0.0 0
M  V30 5 C 11.2583 0.0 0.0 0
M  V30 6 C 9.5262 0.0 0.0 0
M  V30 7 C 11.2583 1.0 0.0 0
M  V30 8 C 8.6602 -0.5 0.0 0
M  V30 9 C 12.1243 1.4999 0.0 0
M  V30 10 C 7.7942 0.0 0.0 0
M  V30 11 C 12.1243 2.4999 0.0 0
M  V30 12 C 6.9282 -0.5 0.0 0
M  V30 13 C 12.9903 2.9999 0.0 0
M  V30 14 C 6.0621 0.0 0.0 0
M  V30 15 O 12.9903 3.9999 0.0 0
M  V30 16 O 13.8564 2.4999 0.0 0
M  V30 17 C 5.1961 -0.5 0.0 0
M  V30 18 C 4.3301 0.0 0.0 0
M  V30 19 C 3.4641 -0.5 0.0 0
M  V30 20 C 2.598 0.0 0.0 0
M  V30 21 C 1.732 -0.5 0.0 0
M  V30 22 C 0.866 0.0 0.0 0
M  V30 23 C 0.0 -0.5 0.0 0
M  V30 END ATOM
M  V30 BEGIN BOND
M  V30 1 2 1 2
M  V30 2 1 2 3
M  V30 3 1 2 4
M  V30 4 2 4 5
M  V30 5 1 4 6
M  V30 6 1 5 7
M  V30 7 1 6 8
M  V30 8 1 7 9
M  V30 9 1 8 10
M  V30 10 1 9 11
M  V30 11 1 10 12
M  V30 12 1 11 13
M  V30 13 1 12 14
M  V30 14 2 13 15
M  V30 15 1 13 16
M  V30 16 1 14 17
M  V30 17 1 17 18
M  V30 18 1 18 19
M  V30 19 1 19 20
M  V30 20 1 20 21
M  V30 21 1 21 22
M  V30 22 1 22 23
M  V30 END BOND
M  V30 END CTAB
M  END
>  <Molecule ChEMBL ID>
CHEMBL569372

>  <Smiles>
CCCCCCCCCCCC/C(=C\CCCC(=O)O)[N+](=O)[O-]

>  <IC50_nM>
1720

>  <Assay Description>
Displacement of [3H2]nTZD3 from GST-tagged human recombinant PPARgamma by scintillation proximity assay

$$$$
CHEMBL1783061
Actelion Java MolfileCreator 2.0

  0  0  0  0  0  0              0 V3000
M  V30 BEGIN CTAB
M  V30 COUNTS 35 38 0 0 0
M  V30 BEGIN ATOM
M  V30 1 O 13.9254 3.1739 0.0 0
M  V30 2 C 13.3153 1.8036 0.0 0
M  V30 3 O 11.8481 1.4917 0.0 0
M  V30 4 N 14.0653 0.5046 0.0 0
M  V30 5 C 11.6913 0.0 0.0 0 CFG=2
M  V30 6 C 13.0616 -0.6101 0.0 0
M  V30 7 C 10.3923 -0.75 0.0 0
M  V30 8 O 13.3735 -2.0773 0.0 0
M  V30 9 C 9.0932 0.0 0.0 0
M  V30 10 C 10.3923 -2.25 0.0 0
M  V30 11 C 7.7942 -0.75 0.0 0
M  V30 12 C 9.0932 -3.0 0.0 0
M  V30 13 O 6.4951 0.0 0.0 0
M  V30 14 C 7.7942 -2.25 0.0 0
M  V30 15 C 5.1961 -0.75 0.0 0
M  V30 16 C 3.8971 0.0 0.0 0
M  V30 17 C 2.598 -0.75 0.0 0
M  V30 18 O 1.299 0.0 0.0 0
M  V30 19 C 0.0 -0.75 0.0 0
M  V30 20 C -1.299 0.0 0.0 0
M  V30 21 C 0.0 -2.25 0.0 0
M  V30 22 C -2.598 -0.75 0.0 0
M  V30 23 C -1.299 1.5 0.0 0
M  V30 24 C -1.299 -3.0 0.0 0
M  V30 25 C -2.598 -2.25 0.0 0
M  V30 26 C 0.0 2.25 0.0 0
M  V30 27 C -3.8971 -3.0 0.0 0
M  V30 28 C 0.0 3.75 0.0 0
M  V30 29 C -5.1961 -2.25 0.0 0
M  V30 30 C -3.8971 -4.5 0.0 0
M  V30 31 C -6.4951 -3.0 0.0 0
M  V30 32 C -5.1961 -5.25 0.0 0
M  V30 33 C -6.4951 -4.5 0.0 0
M  V30 34 C -7.9951 -4.4999 0.0 0
M  V30 35 C -7.2451 -5.799 0.0 0
M  V30 END ATOM
M  V30 BEGIN BOND
M  V30 1 2 1 2
M  V30 2 1 2 3
M  V30 3 1 2 4
M  V30 4 1 3 5
M  V30 5 1 4 6
M  V30 6 1 5 7 CFG=3
M  V30 7 2 6 8
M  V30 8 2 7 9
M  V30 9 1 7 10
M  V30 10 1 9 11
M  V30 11 2 10 12
M  V30 12 1 11 13
M  V30 13 2 11 14
M  V30 14 1 13 15
M  V30 15 1 15 16
M  V30 16 1 16 17
M  V30 17 1 17 18
M  V30 18 1 18 19
M  V30 19 2 19 20
M  V30 20 1 19 21
M  V30 21 1 20 22
M  V30 22 1 20 23
M  V30 23 2 21 24
M  V30 24 2 22 25
M  V30 25 1 23 26
M  V30 26 1 25 27
M  V30 27 1 26 28
M  V30 28 1 27 29
M  V30 29 1 27 30
M  V30 30 1 29 31
M  V30 31 1 30 32
M  V30 32 1 31 33
M  V30 33 1 33 34
M  V30 34 1 33 35
M  V30 35 1 5 6
M  V30 36 1 12 14
M  V30 37 1 24 25
M  V30 38 1 32 33
M  V30 END BOND
M  V30 BEGIN COLLECTION
M  V30 MDLV30/STEABS ATOMS=(1 5)
M  V30 END COLLECTION
M  V30 END CTAB
M  END
>  <Molecule ChEMBL ID>
CHEMBL1783061

>  <Smiles>
CCCc1cc(C2CCC(C)(C)CC2)ccc1OCCCOc1cccc([C@@H]2OC(=O)NC2=O)c1

>  <IC50_nM>
1760

>  <Assay Description>
Displacement of radio-labeled full agonist from PPARgamma receptor

$$$$
CHEMBL119066
Actelion Java MolfileCreator 2.0

  0  0  0  0  0  0              0 V3000
M  V30 BEGIN CTAB
M  V30 COUNTS 35 38 0 0 0
M  V30 BEGIN ATOM
M  V30 1 O 13.9254 3.1739 0.0 0
M  V30 2 C 13.3153 1.8036 0.0 0
M  V30 3 O 11.8481 1.4917 0.0 0
M  V30 4 N 14.0653 0.5046 0.0 0
M  V30 5 C 11.6913 0.0 0.0 0 CFG=1
M  V30 6 C 13.0616 -0.6101 0.0 0
M  V30 7 C 10.3923 -0.75 0.0 0
M  V30 8 O 13.3735 -2.0773 0.0 0
M  V30 9 C 9.0932 0.0 0.0 0
M  V30 10 C 10.3923 -2.25 0.0 0
M  V30 11 C 7.7942 -0.75 0.0 0
M  V30 12 C 9.0932 -3.0 0.0 0
M  V30 13 O 6.4951 0.0 0.0 0
M  V30 14 C 7.7942 -2.25 0.0 0
M  V30 15 C 5.1961 -0.75 0.0 0
M  V30 16 C 3.8971 0.0 0.0 0
M  V30 17 C 2.598 -0.75 0.0 0
M  V30 18 O 1.299 0.0 0.0 0
M  V30 19 C 0.0 -0.75 0.0 0
M  V30 20 C -1.299 0.0 0.0 0
M  V30 21 C 0.0 -2.25 0.0 0
M  V30 22 C -2.598 -0.75 0.0 0
M  V30 23 C -1.299 1.5 0.0 0
M  V30 24 C -1.299 -3.0 0.0 0
M  V30 25 C -2.598 -2.25 0.0 0
M  V30 26 C 0.0 2.25 0.0 0
M  V30 27 C -3.8971 -3.0 0.0 0
M  V30 28 C 0.0 3.75 0.0 0
M  V30 29 C -5.1961 -2.25 0.0 0
M  V30 30 C -3.8971 -4.5 0.0 0
M  V30 31 C -6.4951 -3.0 0.0 0
M  V30 32 C -5.1961 -5.25 0.0 0
M  V30 33 C -6.4951 -4.5 0.0 0
M  V30 34 C -7.9951 -4.4999 0.0 0
M  V30 35 C -7.2451 -5.799 0.0 0
M  V30 END ATOM
M  V30 BEGIN BOND
M  V30 1 2 1 2
M  V30 2 1 2 3
M  V30 3 1 2 4
M  V30 4 1 3 5
M  V30 5 1 4 6
M  V30 6 1 5 7 CFG=1
M  V30 7 2 6 8
M  V30 8 2 7 9
M  V30 9 1 7 10
M  V30 10 1 9 11
M  V30 11 2 10 12
M  V30 12 1 11 13
M  V30 13 2 11 14
M  V30 14 1 13 15
M  V30 15 1 15 16
M  V30 16 1 16 17
M  V30 17 1 17 18
M  V30 18 1 18 19
M  V30 19 2 19 20
M  V30 20 1 19 21
M  V30 21 1 20 22
M  V30 22 1 20 23
M  V30 23 2 21 24
M  V30 24 2 22 25
M  V30 25 1 23 26
M  V30 26 1 25 27
M  V30 27 1 26 28
M  V30 28 1 27 29
M  V30 29 1 27 30
M  V30 30 1 29 31
M  V30 31 1 30 32
M  V30 32 1 31 33
M  V30 33 1 33 34
M  V30 34 1 33 35
M  V30 35 1 5 6
M  V30 36 1 12 14
M  V30 37 1 24 25
M  V30 38 1 32 33
M  V30 END BOND
M  V30 BEGIN COLLECTION
M  V30 MDLV30/STERAC1 ATOMS=(1 5)
M  V30 END COLLECTION
M  V30 END CTAB
M  END
>  <Molecule ChEMBL ID>
CHEMBL119066

>  <Smiles>
CCCc1cc(C2CCC(C)(C)CC2)ccc1OCCCOc1cccc(C2OC(=O)NC2=O)c1

>  <IC50_nM>
1760

>  <Assay Description>
In vitro binding affinity against human peroxisome proliferator activated receptor gamma

$$$$
CHEMBL371120
Actelion Java MolfileCreator 2.0

  0  0  0  0  0  0              0 V3000
M  V30 BEGIN CTAB
M  V30 COUNTS 34 37 0 0 0
M  V30 BEGIN ATOM
M  V30 1 O 3.4641 1.5 0.0 0
M  V30 2 C 2.598 1.0 0.0 0
M  V30 3 O 1.732 1.5 0.0 0
M  V30 4 C 2.598 0.0 0.0 0
M  V30 5 N 1.732 -0.5 0.0 0
M  V30 6 C 1.732 -1.5 0.0 0
M  V30 7 C 0.866 0.0 0.0 0
M  V30 8 C 2.598 -1.9999 0.0 0
M  V30 9 C 0.0 -0.5 0.0 0
M  V30 10 C 2.598 -2.9999 0.0 0
M  V30 11 C 3.4641 -1.5 0.0 0
M  V30 12 C -0.866 0.0 0.0 0
M  V30 13 C 0.0 -1.4999 0.0 0
M  V30 14 C 3.4641 -3.4999 0.0 0
M  V30 15 C 4.3301 -1.9999 0.0 0
M  V30 16 C -1.732 -0.4999 0.0 0
M  V30 17 C -0.866 -1.9999 0.0 0
M  V30 18 C 4.3301 -2.9999 0.0 0
M  V30 19 C -1.732 -1.4999 0.0 0
M  V30 20 O 5.1961 -3.4999 0.0 0
M  V30 21 C 6.0621 -2.9999 0.0 0
M  V30 22 C 6.9282 -3.4999 0.0 0
M  V30 23 C 7.7942 -2.9999 0.0 0
M  V30 24 N 8.7077 -3.4067 0.0 0
M  V30 25 C 7.8987 -2.0054 0.0 0
M  V30 26 C 9.3769 -2.6635 0.0 0
M  V30 27 O 8.8769 -1.7975 0.0 0
M  V30 28 C 7.1556 -1.3363 0.0 0
M  V30 29 C 10.3714 -2.7681 0.0 0
M  V30 30 C 10.7781 -3.6816 0.0 0
M  V30 31 C 10.9592 -1.9591 0.0 0
M  V30 32 C 11.7726 -3.7861 0.0 0
M  V30 33 C 11.9537 -2.0636 0.0 0
M  V30 34 C 12.3604 -2.9771 0.0 0
M  V30 END ATOM
M  V30 BEGIN BOND
M  V30 1 2 1 2
M  V30 2 1 2 3
M  V30 3 1 2 4
M  V30 4 1 4 5
M  V30 5 1 5 6
M  V30 6 1 5 7
M  V30 7 1 6 8
M  V30 8 1 7 9
M  V30 9 2 8 10
M  V30 10 1 8 11
M  V30 11 2 9 12
M  V30 12 1 9 13
M  V30 13 1 10 14
M  V30 14 2 11 15
M  V30 15 1 12 16
M  V30 16 2 13 17
M  V30 17 2 14 18
M  V30 18 2 16 19
M  V30 19 1 18 20
M  V30 20 1 20 21
M  V30 21 1 21 22
M  V30 22 1 22 23
M  V30 23 1 23 24
M  V30 24 2 23 25
M  V30 25 2 24 26
M  V30 26 1 25 27
M  V30 27 1 25 28
M  V30 28 1 26 29
M  V30 29 2 29 30
M  V30 30 1 29 31
M  V30 31 1 30 32
M  V30 32 2 31 33
M  V30 33 2 32 34
M  V30 34 1 15 18
M  V30 35 1 17 19
M  V30 36 1 26 27
M  V30 37 1 33 34
M  V30 END BOND
M  V30 END CTAB
M  END
>  <Molecule ChEMBL ID>
CHEMBL371120

>  <Smiles>
Cc1oc(-c2ccccc2)nc1CCOc1ccc(CN(CC(=O)O)Cc2ccccc2)cc1

>  <IC50_nM>
1770

>  <Assay Description>
Displacement of fluorescein labeled ligand from PPARgamma receptor by fluorescence polarization assay

$$$$
CHEMBL196775
Actelion Java MolfileCreator 2.0

  0  0  0  0  0  0              0 V3000
M  V30 BEGIN CTAB
M  V30 COUNTS 36 39 0 0 0
M  V30 BEGIN ATOM
M  V30 1 F 10.8713 -2.451 0.0 0
M  V30 2 C 9.9203 -2.76 0.0 0
M  V30 3 F 10.2293 -3.7111 0.0 0
M  V30 4 F 8.9692 -3.069 0.0 0
M  V30 5 C 9.6113 -1.809 0.0 0
M  V30 6 N 10.199 -1.0 0.0 0
M  V30 7 C 8.6602 -1.5 0.0 0
M  V30 8 O 9.6113 -0.1909 0.0 0
M  V30 9 C 8.6602 -0.5 0.0 0
M  V30 10 C 7.7942 -2.0 0.0 0
M  V30 11 C 7.7942 0.0 0.0 0
M  V30 12 C 6.9282 -1.4999 0.0 0
M  V30 13 C 6.9282 -0.5 0.0 0
M  V30 14 C 7.7942 0.9999 0.0 0
M  V30 15 O 6.0621 0.0 0.0 0
M  V30 16 C 8.6602 1.4999 0.0 0
M  V30 17 C 5.1961 -0.5 0.0 0
M  V30 18 C 8.6602 2.4999 0.0 0
M  V30 19 C 4.3301 0.0 0.0 0
M  V30 20 C 3.4641 -0.5 0.0 0
M  V30 21 C 2.598 0.0 0.0 0
M  V30 22 C 1.732 -0.5 0.0 0
M  V30 23 O 0.866 0.0 0.0 0
M  V30 24 C 0.0 -0.5 0.0 0
M  V30 25 C 0.0 -1.5 0.0 0
M  V30 26 C -0.866 0.0 0.0 0
M  V30 27 C -0.866 -1.9999 0.0 0
M  V30 28 C 0.7431 -2.1691 0.0 0
M  V30 29 C -1.732 -0.4999 0.0 0
M  V30 30 N -0.6581 -2.9781 0.0 0
M  V30 31 C -1.732 -1.4999 0.0 0
M  V30 32 C 0.3364 -3.0826 0.0 0
M  V30 33 C -1.3272 -3.7212 0.0 0
M  V30 34 C -2.3053 -3.5133 0.0 0
M  V30 35 O -2.6144 -2.5623 0.0 0
M  V30 36 O -2.9745 -4.2565 0.0 0
M  V30 END ATOM
M  V30 BEGIN BOND
M  V30 1 1 1 2
M  V30 2 1 2 3
M  V30 3 1 2 4
M  V30 4 1 2 5
M  V30 5 2 5 6
M  V30 6 1 5 7
M  V30 7 1 6 8
M  V30 8 2 7 9
M  V30 9 1 7 10
M  V30 10 1 9 11
M  V30 11 2 10 12
M  V30 12 2 11 13
M  V30 13 1 11 14
M  V30 14 1 13 15
M  V30 15 1 14 16
M  V30 16 1 15 17
M  V30 17 1 16 18
M  V30 18 1 17 19
M  V30 19 1 19 20
M  V30 20 1 20 21
M  V30 21 1 21 22
M  V30 22 1 22 23
M  V30 23 1 23 24
M  V30 24 2 24 25
M  V30 25 1 24 26
M  V30 26 1 25 27
M  V30 27 1 25 28
M  V30 28 2 26 29
M  V30 29 1 27 30
M  V30 30 2 27 31
M  V30 31 2 28 32
M  V30 32 1 30 33
M  V30 33 1 33 34
M  V30 34 2 34 35
M  V30 35 1 34 36
M  V30 36 1 8 9
M  V30 37 1 12 13
M  V30 38 1 29 31
M  V30 39 1 30 32
M  V30 END BOND
M  V30 END CTAB
M  END
>  <Molecule ChEMBL ID>
CHEMBL196775

>  <Smiles>
CCCc1c(OCCCCCOc2cccc3c2ccn3CC(=O)O)ccc2c(C(F)(F)F)noc12

>  <IC50_nM>
1784

>  <Assay Description>
Displacement of [3H]rosiglitazone from human PPAR gamma by SPA assay

$$$$
CHEMBL372220
Actelion Java MolfileCreator 2.0

  0  0  0  0  0  0              0 V3000
M  V30 BEGIN CTAB
M  V30 COUNTS 30 32 0 0 0
M  V30 BEGIN ATOM
M  V30 1 O 7.7349 -0.9999 0.0 0
M  V30 2 C 6.7349 -0.9999 0.0 0
M  V30 3 O 6.1472 -0.1909 0.0 0
M  V30 4 N 6.1472 -1.809 0.0 0
M  V30 5 C 5.1961 -0.4999 0.0 0
M  V30 6 C 5.1961 -1.4999 0.0 0
M  V30 7 C 6.4562 -2.76 0.0 0
M  V30 8 C 4.3301 0.0 0.0 0
M  V30 9 C 4.3301 -2.0 0.0 0
M  V30 10 C 5.787 -3.5032 0.0 0
M  V30 11 C 7.4343 -2.9679 0.0 0
M  V30 12 C 3.4641 -0.5 0.0 0
M  V30 13 C 4.4224 1.0977 0.0 0
M  V30 14 C 3.4641 -1.4999 0.0 0
M  V30 15 O 2.598 0.0 0.0 0
M  V30 16 C 5.1961 1.4999 0.0 0
M  V30 17 C 2.598 -1.9999 0.0 0
M  V30 18 C 2.598 1.0 0.0 0 CFG=1
M  V30 19 C 6.0621 1.0 0.0 0
M  V30 20 C 2.598 -2.9999 0.0 0
M  V30 21 C 1.732 1.4999 0.0 0
M  V30 22 C 3.4641 1.5 0.0 0
M  V30 23 C 1.732 -3.4999 0.0 0
M  V30 24 C 1.732 2.4999 0.0 0
M  V30 25 C 0.866 0.9999 0.0 0
M  V30 26 O 4.2408 0.7664 0.0 0
M  V30 27 O 3.4641 2.5 0.0 0
M  V30 28 C 0.866 3.0 0.0 0
M  V30 29 C 0.0 1.4999 0.0 0
M  V30 30 C 0.0 2.5 0.0 0
M  V30 END ATOM
M  V30 BEGIN BOND
M  V30 1 2 1 2
M  V30 2 1 2 3
M  V30 3 1 2 4
M  V30 4 1 3 5
M  V30 5 1 4 6
M  V30 6 1 4 7
M  V30 7 1 5 8
M  V30 8 1 6 9
M  V30 9 1 7 10
M  V30 10 1 7 11
M  V30 11 2 8 12
M  V30 12 1 8 13
M  V30 13 2 9 14
M  V30 14 1 12 15
M  V30 15 1 13 16
M  V30 16 1 14 17
M  V30 17 1 18 15 CFG=1
M  V30 18 1 16 19
M  V30 19 1 17 20
M  V30 20 1 18 21
M  V30 21 1 18 22
M  V30 22 1 20 23
M  V30 23 2 21 24
M  V30 24 1 21 25
M  V30 25 2 22 26
M  V30 26 1 22 27
M  V30 27 1 24 28
M  V30 28 2 25 29
M  V30 29 2 28 30
M  V30 30 2 5 6
M  V30 31 1 12 14
M  V30 32 1 29 30
M  V30 END BOND
M  V30 BEGIN COLLECTION
M  V30 MDLV30/STEABS ATOMS=(1 18)
M  V30 END COLLECTION
M  V30 END CTAB
M  END
>  <Molecule ChEMBL ID>
CHEMBL372220

>  <Smiles>
CCCc1cc2c(oc(=O)n2C(C)C)c(CCC)c1O[C@H](C(=O)O)c1ccccc1

>  <IC50_nM>
1790

>  <Assay Description>
In vitro binding affinity for human PPAR gamma

$$$$
CHEMBL1172425
Actelion Java MolfileCreator 2.0

  0  0  0  0  0  0              0 V3000
M  V30 BEGIN CTAB
M  V30 COUNTS 27 29 0 0 0
M  V30 BEGIN ATOM
M  V30 1 S 1.732 -0.5 0.0 0
M  V30 2 C 2.598 0.0 0.0 0
M  V30 3 C 0.866 0.0 0.0 0
M  V30 4 N 3.4641 -0.4999 0.0 0
M  V30 5 C 2.598 0.9999 0.0 0
M  V30 6 C 0.0 -0.5 0.0 0
M  V30 7 C 4.3301 0.0 0.0 0
M  V30 8 C 3.4641 1.5 0.0 0
M  V30 9 C 1.732 1.4999 0.0 0
M  V30 10 C -0.866 0.0 0.0 0
M  V30 11 C 0.0 -1.4999 0.0 0
M  V30 12 S 5.1961 -0.4999 0.0 0
M  V30 13 N 4.3301 1.0 0.0 0
M  V30 14 S 3.4641 2.5 0.0 0
M  V30 15 O 1.732 2.5 0.0 0
M  V30 16 O 0.866 0.9999 0.0 0
M  V30 17 C -1.732 -0.4999 0.0 0
M  V30 18 C -0.866 -1.9999 0.0 0
M  V30 19 C 6.0621 0.0 0.0 0
M  V30 20 C 4.3301 3.0 0.0 0
M  V30 21 C -1.732 -1.4999 0.0 0
M  V30 22 C 4.3301 4.0 0.0 0
M  V30 23 C 5.1961 4.4999 0.0 0
M  V30 24 C 3.4641 4.5 0.0 0
M  V30 25 C 5.1961 5.4999 0.0 0
M  V30 26 C 3.4641 5.5 0.0 0
M  V30 27 C 4.3301 6.0 0.0 0
M  V30 END ATOM
M  V30 BEGIN BOND
M  V30 1 1 1 2
M  V30 2 1 1 3
M  V30 3 2 2 4
M  V30 4 1 2 5
M  V30 5 1 3 6
M  V30 6 1 4 7
M  V30 7 2 5 8
M  V30 8 1 5 9
M  V30 9 2 6 10
M  V30 10 1 6 11
M  V30 11 1 7 12
M  V30 12 2 7 13
M  V30 13 1 8 14
M  V30 14 2 9 15
M  V30 15 1 9 16
M  V30 16 1 10 17
M  V30 17 2 11 18
M  V30 18 1 12 19
M  V30 19 1 14 20
M  V30 20 2 17 21
M  V30 21 1 20 22
M  V30 22 2 22 23
M  V30 23 1 22 24
M  V30 24 1 23 25
M  V30 25 2 24 26
M  V30 26 2 25 27
M  V30 27 1 8 13
M  V30 28 1 18 21
M  V30 29 1 26 27
M  V30 END BOND
M  V30 END CTAB
M  END
>  <Molecule ChEMBL ID>
CHEMBL1172425

>  <Smiles>
CSc1nc(SCc2ccccc2)c(C(=O)O)c(SCc2ccccc2)n1

>  <IC50_nM>
1790

>  <Assay Description>
Antagonist activity at human PPARgamma-LBD expressed in CHO-K1 cells co-transfected with GAL4 assessed as inhibition of rosiglitazone-induced luciferase activity by transactivation assay

$$$$
CHEMBL595
Actelion Java MolfileCreator 2.0

  0  0  0  0  0  0              0 V3000
M  V30 BEGIN CTAB
M  V30 COUNTS 25 27 0 0 0
M  V30 BEGIN ATOM
M  V30 1 S 5.2531 -3.5877 0.0 0
M  V30 2 C 5.5621 -4.5388 0.0 0
M  V30 3 C 6.0621 -3.0 0.0 0 CFG=2
M  V30 4 O 4.9743 -5.3478 0.0 0
M  V30 5 N 6.5621 -4.5388 0.0 0
M  V30 6 C 6.8711 -3.5877 0.0 0
M  V30 7 C 6.0621 -1.9999 0.0 0
M  V30 8 O 7.8222 -3.2787 0.0 0
M  V30 9 C 5.1961 -1.4999 0.0 0
M  V30 10 C 5.1961 -0.5 0.0 0
M  V30 11 C 4.3301 -1.9999 0.0 0
M  V30 12 C 4.3301 0.0 0.0 0
M  V30 13 C 3.4641 -1.5 0.0 0
M  V30 14 C 3.4641 -0.5 0.0 0
M  V30 15 O 2.598 0.0 0.0 0
M  V30 16 C 1.732 -0.5 0.0 0
M  V30 17 C 0.866 0.0 0.0 0
M  V30 18 C 0.0 -0.5 0.0 0
M  V30 19 N -0.866 0.0 0.0 0
M  V30 20 C 0.0 -1.4999 0.0 0
M  V30 21 C -1.732 -0.4999 0.0 0
M  V30 22 C -0.866 -1.9999 0.0 0
M  V30 23 C -1.732 -1.4999 0.0 0
M  V30 24 C -2.598 -1.9999 0.0 0
M  V30 25 C -2.598 -2.9999 0.0 0
M  V30 END ATOM
M  V30 BEGIN BOND
M  V30 1 1 1 2
M  V30 2 1 1 3
M  V30 3 2 2 4
M  V30 4 1 2 5
M  V30 5 1 3 6
M  V30 6 1 3 7 CFG=1
M  V30 7 2 6 8
M  V30 8 1 7 9
M  V30 9 2 9 10
M  V30 10 1 9 11
M  V30 11 1 10 12
M  V30 12 2 11 13
M  V30 13 2 12 14
M  V30 14 1 14 15
M  V30 15 1 15 16
M  V30 16 1 16 17
M  V30 17 1 17 18
M  V30 18 2 18 19
M  V30 19 1 18 20
M  V30 20 1 19 21
M  V30 21 2 20 22
M  V30 22 2 21 23
M  V30 23 1 23 24
M  V30 24 1 24 25
M  V30 25 1 5 6
M  V30 26 1 13 14
M  V30 27 1 22 23
M  V30 END BOND
M  V30 BEGIN COLLECTION
M  V30 MDLV30/STERAC1 ATOMS=(1 3)
M  V30 END COLLECTION
M  V30 END CTAB
M  END
>  <Molecule ChEMBL ID>
CHEMBL595

>  <Smiles>
CCc1ccc(CCOc2ccc(CC3SC(=O)NC3=O)cc2)nc1

>  <IC50_nM>
1790

>  <Assay Description>
Competitive displacement of fluorescently labelled PPAR tracer ligand from GST-tagged human PPARgamma ligand binding domain after 1 hr in dark by TR-FRET competitive binding assay

$$$$
CHEMBL179622
Actelion Java MolfileCreator 2.0

  0  0  0  0  0  0              0 V3000
M  V30 BEGIN CTAB
M  V30 COUNTS 31 33 0 0 0
M  V30 BEGIN ATOM
M  V30 1 Cl 6.0621 1.0 0.0 0
M  V30 2 C 6.0621 0.0 0.0 0
M  V30 3 C 5.1961 -0.5 0.0 0
M  V30 4 C 6.9282 -0.4999 0.0 0
M  V30 5 O 4.3301 0.0 0.0 0
M  V30 6 C 5.1961 -1.4999 0.0 0
M  V30 7 C 6.9282 -1.4999 0.0 0
M  V30 8 C 3.4641 -0.5 0.0 0
M  V30 9 C 6.0621 -1.9999 0.0 0
M  V30 10 C 7.7942 -1.9999 0.0 0
M  V30 11 C 2.598 0.0 0.0 0
M  V30 12 C 7.7942 -2.9999 0.0 0
M  V30 13 C 1.732 -0.5 0.0 0
M  V30 14 C 6.9282 -3.4999 0.0 0
M  V30 15 C 8.6602 -3.4999 0.0 0
M  V30 16 O 0.866 0.0 0.0 0
M  V30 17 C 0.0 -0.5 0.0 0
M  V30 18 C -0.866 0.0 0.0 0
M  V30 19 C 0.0 -1.4999 0.0 0
M  V30 20 C -1.732 -0.4999 0.0 0
M  V30 21 C -0.866 -1.9999 0.0 0
M  V30 22 O -2.598 0.0 0.0 0
M  V30 23 C -1.732 -1.4999 0.0 0
M  V30 24 C -3.4641 -0.4999 0.0 0 CFG=1
M  V30 25 C -2.598 -1.9999 0.0 0
M  V30 26 C -3.4641 0.5 0.0 0
M  V30 27 C -3.4641 -1.4999 0.0 0
M  V30 28 C -4.3301 0.0 0.0 0
M  V30 29 O -4.3301 1.0 0.0 0
M  V30 30 O -2.598 1.0 0.0 0
M  V30 31 C -5.1961 -0.4999 0.0 0
M  V30 END ATOM
M  V30 BEGIN BOND
M  V30 1 1 1 2
M  V30 2 2 2 3
M  V30 3 1 2 4
M  V30 4 1 3 5
M  V30 5 1 3 6
M  V30 6 2 4 7
M  V30 7 1 5 8
M  V30 8 2 6 9
M  V30 9 1 7 10
M  V30 10 1 8 11
M  V30 11 1 10 12
M  V30 12 1 11 13
M  V30 13 1 12 14
M  V30 14 1 12 15
M  V30 15 1 13 16
M  V30 16 1 16 17
M  V30 17 2 17 18
M  V30 18 1 17 19
M  V30 19 1 18 20
M  V30 20 2 19 21
M  V30 21 1 20 22
M  V30 22 2 20 23
M  V30 23 1 22 24
M  V30 24 1 23 25
M  V30 25 1 24 26 CFG=3
M  V30 26 1 24 27
M  V30 27 1 24 28
M  V30 28 2 26 29
M  V30 29 1 26 30
M  V30 30 1 28 31
M  V30 31 1 7 9
M  V30 32 1 21 23
M  V30 33 1 25 27
M  V30 END BOND
M  V30 BEGIN COLLECTION
M  V30 MDLV30/STEABS ATOMS=(1 24)
M  V30 END COLLECTION
M  V30 END CTAB
M  END
>  <Molecule ChEMBL ID>
CHEMBL179622

>  <Smiles>
CC[C@]1(C(=O)O)CCc2ccc(OCCCOc3ccc(CC(C)C)cc3Cl)cc2O1

>  <IC50_nM>
1800

>  <Assay Description>
In vitro binding affinity against human PPARgamma

$$$$
CHEMBL3598150
Actelion Java MolfileCreator 2.0

  0  0  0  0  0  0              0 V3000
M  V30 BEGIN CTAB
M  V30 COUNTS 31 34 0 0 0
M  V30 BEGIN ATOM
M  V30 1 Cl -0.866 0.9999 0.0 0
M  V30 2 C 0.0 1.4999 0.0 0
M  V30 3 C 0.866 0.9999 0.0 0
M  V30 4 C 0.0 2.4999 0.0 0
M  V30 5 C 1.732 1.5 0.0 0
M  V30 6 C 0.866 0.0 0.0 0
M  V30 7 C 0.866 3.0 0.0 0
M  V30 8 C 1.732 2.4999 0.0 0
M  V30 9 C 2.598 1.0 0.0 0
M  V30 10 O 1.732 -0.5 0.0 0
M  V30 11 C 0.0 -0.5 0.0 0
M  V30 12 F 3.098 1.866 0.0 0
M  V30 13 F 3.4641 0.5 0.0 0
M  V30 14 F 2.098 0.1339 0.0 0
M  V30 15 N -0.9135 -0.0932 0.0 0
M  V30 16 N -0.1045 -1.4945 0.0 0
M  V30 17 C -1.5826 -0.8364 0.0 0
M  V30 18 C -1.0826 -1.7024 0.0 0
M  V30 19 C 0.5646 -2.2376 0.0 0
M  V30 20 C -2.5771 -0.7318 0.0 0
M  V30 21 C -1.3916 -2.6534 0.0 0
M  V30 22 C 0.2555 -3.1887 0.0 0
M  V30 23 C -2.9839 0.1816 0.0 0
M  V30 24 C -3.1649 -1.5408 0.0 0
M  V30 25 C -0.7225 -3.3966 0.0 0
M  V30 26 C -3.9784 0.2861 0.0 0
M  V30 27 C -4.1595 -1.4363 0.0 0
M  V30 28 C -4.5662 -0.5228 0.0 0 CFG=2
M  V30 29 C -5.5607 -0.4182 0.0 0
M  V30 30 O -5.9675 0.4952 0.0 0
M  V30 31 O -6.1485 -1.2273 0.0 0
M  V30 END ATOM
M  V30 BEGIN BOND
M  V30 1 1 1 2
M  V30 2 2 2 3
M  V30 3 1 2 4
M  V30 4 1 3 5
M  V30 5 1 3 6
M  V30 6 2 4 7
M  V30 7 2 5 8
M  V30 8 1 5 9
M  V30 9 2 6 10
M  V30 10 1 6 11
M  V30 11 1 9 12
M  V30 12 1 9 13
M  V30 13 1 9 14
M  V30 14 2 11 15
M  V30 15 1 11 16
M  V30 16 1 15 17
M  V30 17 1 16 18
M  V30 18 1 16 19
M  V30 19 1 17 20
M  V30 20 1 18 21
M  V30 21 2 19 22
M  V30 22 2 20 23
M  V30 23 1 20 24
M  V30 24 2 21 25
M  V30 25 1 23 26
M  V30 26 1 24 27
M  V30 27 1 26 28
M  V30 28 1 28 29 CFG=3
M  V30 29 2 29 30
M  V30 30 1 29 31
M  V30 31 1 7 8
M  V30 32 2 17 18
M  V30 33 1 22 25
M  V30 34 1 27 28
M  V30 END BOND
M  V30 BEGIN COLLECTION
M  V30 MDLV30/STERAC1 ATOMS=(1 28)
M  V30 END COLLECTION
M  V30 END CTAB
M  END
>  <Molecule ChEMBL ID>
CHEMBL3598150

>  <Smiles>
O=C(c1c(Cl)cccc1C(F)(F)F)c1nc(C2=CCC(C(=O)O)CC2)c2ccccn12

>  <IC50_nM>
1800

>  <Assay Description>
Displacement of fluormone PPARgamma green from GST-tagged human PPARgamma-LBD after 2 hrs by fluorescence polarization assay

$$$$
CHEMBL109975
Actelion Java MolfileCreator 2.0

  0  0  0  0  0  0              0 V3000
M  V30 BEGIN CTAB
M  V30 COUNTS 35 38 0 0 0
M  V30 BEGIN ATOM
M  V30 1 O 12.9903 6.7499 0.0 0
M  V30 2 C 11.6913 6.0 0.0 0
M  V30 3 O 10.3923 6.75 0.0 0
M  V30 4 C 11.6913 4.5 0.0 0 CFG=1
M  V30 5 O 10.3923 3.75 0.0 0
M  V30 6 C 12.9903 3.7499 0.0 0
M  V30 7 C 10.3923 2.25 0.0 0
M  V30 8 C 12.9903 2.2499 0.0 0
M  V30 9 C 11.6913 1.4999 0.0 0
M  V30 10 C 9.0932 1.5 0.0 0
M  V30 11 C 11.6913 0.0 0.0 0
M  V30 12 C 9.0932 0.0 0.0 0
M  V30 13 C 10.3923 -0.75 0.0 0
M  V30 14 O 7.7942 -0.75 0.0 0
M  V30 15 C 6.4951 0.0 0.0 0
M  V30 16 C 5.1961 -0.75 0.0 0
M  V30 17 C 3.8971 0.0 0.0 0
M  V30 18 C 2.598 -0.75 0.0 0
M  V30 19 O 1.299 0.0 0.0 0
M  V30 20 C 0.0 -0.75 0.0 0
M  V30 21 C -1.299 0.0 0.0 0
M  V30 22 C 0.0 -2.25 0.0 0
M  V30 23 C -2.598 -0.7499 0.0 0
M  V30 24 C -1.299 1.5 0.0 0
M  V30 25 C -1.299 -2.9999 0.0 0
M  V30 26 C -2.598 -2.2499 0.0 0
M  V30 27 C 0.0 2.25 0.0 0
M  V30 28 O -3.8971 -2.9999 0.0 0
M  V30 29 C 0.0 3.75 0.0 0
M  V30 30 C -3.8971 -4.4999 0.0 0
M  V30 31 C -5.1961 -5.2499 0.0 0
M  V30 32 C -2.598 -5.2499 0.0 0
M  V30 33 C -5.1961 -6.7499 0.0 0
M  V30 34 C -2.598 -6.7499 0.0 0
M  V30 35 C -3.8971 -7.4999 0.0 0
M  V30 END ATOM
M  V30 BEGIN BOND
M  V30 1 2 1 2
M  V30 2 1 2 3
M  V30 3 1 4 2 CFG=3
M  V30 4 1 4 5
M  V30 5 1 4 6
M  V30 6 1 5 7
M  V30 7 1 6 8
M  V30 8 2 7 9
M  V30 9 1 7 10
M  V30 10 1 9 11
M  V30 11 2 10 12
M  V30 12 2 11 13
M  V30 13 1 12 14
M  V30 14 1 14 15
M  V30 15 1 15 16
M  V30 16 1 16 17
M  V30 17 1 17 18
M  V30 18 1 18 19
M  V30 19 1 19 20
M  V30 20 2 20 21
M  V30 21 1 20 22
M  V30 22 1 21 23
M  V30 23 1 21 24
M  V30 24 2 22 25
M  V30 25 2 23 26
M  V30 26 1 24 27
M  V30 27 1 26 28
M  V30 28 1 27 29
M  V30 29 1 28 30
M  V30 30 2 30 31
M  V30 31 1 30 32
M  V30 32 1 31 33
M  V30 33 2 32 34
M  V30 34 2 33 35
M  V30 35 1 8 9
M  V30 36 1 12 13
M  V30 37 1 25 26
M  V30 38 1 34 35
M  V30 END BOND
M  V30 BEGIN COLLECTION
M  V30 MDLV30/STERAC1 ATOMS=(1 4)
M  V30 END COLLECTION
M  V30 END CTAB
M  END
>  <Molecule ChEMBL ID>
CHEMBL109975

>  <Smiles>
CCCc1cc(Oc2ccccc2)ccc1OCCCCOc1ccc2c(c1)OC(C(=O)O)CC2

>  <IC50_nM>
1800

>  <Assay Description>
In vitro binding affinity for human peroxisome proliferator activated receptor gamma using scintillation proximity assay (SPA)

$$$$
CHEMBL51603
Actelion Java MolfileCreator 2.0

  0  0  0  0  0  0              0 V3000
M  V30 BEGIN CTAB
M  V30 COUNTS 38 41 0 0 0
M  V30 BEGIN ATOM
M  V30 1 S 7.8987 -2.9945 0.0 0
M  V30 2 C 8.8769 -3.2024 0.0 0
M  V30 3 C 7.7942 -2.0 0.0 0 CFG=2
M  V30 4 O 9.2836 -4.1159 0.0 0
M  V30 5 N 9.3769 -2.3364 0.0 0
M  V30 6 C 6.9282 -1.5 0.0 0
M  V30 7 C 8.7077 -1.5932 0.0 0
M  V30 8 C 6.9282 -0.5 0.0 0
M  V30 9 C 6.0621 -2.0 0.0 0
M  V30 10 O 8.9156 -0.6151 0.0 0
M  V30 11 C 6.0621 0.0 0.0 0
M  V30 12 C 5.1961 -1.5 0.0 0
M  V30 13 C 5.1961 -0.5 0.0 0
M  V30 14 O 4.3301 0.0 0.0 0
M  V30 15 C 3.4641 -0.5 0.0 0
M  V30 16 C 2.598 0.0 0.0 0
M  V30 17 C 1.732 -0.5 0.0 0
M  V30 18 O 0.866 0.0 0.0 0
M  V30 19 C 0.0 -0.5 0.0 0
M  V30 20 C -0.866 0.0 0.0 0
M  V30 21 C 0.0 -1.4999 0.0 0
M  V30 22 C -1.732 -0.4999 0.0 0
M  V30 23 C -0.866 1.0 0.0 0
M  V30 24 C -0.866 -1.9999 0.0 0
M  V30 25 C -1.732 -1.4999 0.0 0
M  V30 26 C 0.0 1.5 0.0 0
M  V30 27 O -2.598 -1.9999 0.0 0
M  V30 28 C 0.0 2.5 0.0 0
M  V30 29 C -2.598 -2.9999 0.0 0
M  V30 30 C -3.4641 -3.4999 0.0 0
M  V30 31 C -1.732 -3.4999 0.0 0
M  V30 32 C -3.4641 -4.4999 0.0 0
M  V30 33 C -1.732 -4.4999 0.0 0
M  V30 34 C -2.598 -4.9999 0.0 0
M  V30 35 C -2.598 -5.9999 0.0 0
M  V30 36 F -1.598 -5.9999 0.0 0
M  V30 37 F -2.598 -6.9999 0.0 0
M  V30 38 F -3.598 -5.9999 0.0 0
M  V30 END ATOM
M  V30 BEGIN BOND
M  V30 1 1 1 2
M  V30 2 1 1 3
M  V30 3 2 2 4
M  V30 4 1 2 5
M  V30 5 1 3 6 CFG=3
M  V30 6 1 3 7
M  V30 7 2 6 8
M  V30 8 1 6 9
M  V30 9 2 7 10
M  V30 10 1 8 11
M  V30 11 2 9 12
M  V30 12 2 11 13
M  V30 13 1 13 14
M  V30 14 1 14 15
M  V30 15 1 15 16
M  V30 16 1 16 17
M  V30 17 1 17 18
M  V30 18 1 18 19
M  V30 19 2 19 20
M  V30 20 1 19 21
M  V30 21 1 20 22
M  V30 22 1 20 23
M  V30 23 2 21 24
M  V30 24 2 22 25
M  V30 25 1 23 26
M  V30 26 1 25 27
M  V30 27 1 26 28
M  V30 28 1 27 29
M  V30 29 2 29 30
M  V30 30 1 29 31
M  V30 31 1 30 32
M  V30 32 2 31 33
M  V30 33 2 32 34
M  V30 34 1 34 35
M  V30 35 1 35 36
M  V30 36 1 35 37
M  V30 37 1 35 38
M  V30 38 1 5 7
M  V30 39 1 12 13
M  V30 40 1 24 25
M  V30 41 1 33 34
M  V30 END BOND
M  V30 BEGIN COLLECTION
M  V30 MDLV30/STERAC1 ATOMS=(1 3)
M  V30 END COLLECTION
M  V30 END CTAB
M  END
>  <Molecule ChEMBL ID>
CHEMBL51603

>  <Smiles>
CCCc1cc(Oc2ccc(C(F)(F)F)cc2)ccc1OCCCOc1ccc(C2SC(=O)NC2=O)cc1

>  <IC50_nM>
1800

>  <Assay Description>
In vitro binding affinity against human PPAR gamma (peroxisome proliferator-activated gamma receptor)

$$$$
CHEMBL5182665
Actelion Java MolfileCreator 2.0

  0  0  0  0  0  0              0 V3000
M  V30 BEGIN CTAB
M  V30 COUNTS 29 32 0 0 0
M  V30 BEGIN ATOM
M  V30 1 Cl 1.732 1.4999 0.0 0
M  V30 2 C 2.598 1.0 0.0 0
M  V30 3 C 2.598 0.0 0.0 0
M  V30 4 C 3.4641 1.4999 0.0 0
M  V30 5 C 1.732 -0.5 0.0 0
M  V30 6 C 3.4641 -0.5 0.0 0
M  V30 7 C 4.3301 1.0 0.0 0
M  V30 8 O 1.732 -1.5 0.0 0
M  V30 9 N 0.866 0.0 0.0 0
M  V30 10 C 4.3301 0.0 0.0 0
M  V30 11 C 0.0 -0.5 0.0 0
M  V30 12 N 5.1961 -0.5 0.0 0 CHG=1
M  V30 13 C -0.866 0.0 0.0 0
M  V30 14 C 0.0 -1.5 0.0 0
M  V30 15 O 5.1961 -1.5 0.0 0
M  V30 16 O 6.0621 0.0 0.0 0 CHG=-1
M  V30 17 C -1.732 -0.4999 0.0 0
M  V30 18 C -0.866 -1.9999 0.0 0
M  V30 19 O -2.6831 -0.1909 0.0 0
M  V30 20 C -1.732 -1.4999 0.0 0
M  V30 21 C -3.2708 -0.9999 0.0 0
M  V30 22 N -2.6831 -1.809 0.0 0
M  V30 23 C -4.2708 -0.9999 0.0 0
M  V30 24 C -4.7708 -0.1339 0.0 0
M  V30 25 C -4.7708 -1.866 0.0 0
M  V30 26 C -5.7708 -0.1339 0.0 0
M  V30 27 C -5.7708 -1.866 0.0 0
M  V30 28 C -6.2708 -0.9999 0.0 0
M  V30 29 C -7.2708 -0.9999 0.0 0
M  V30 END ATOM
M  V30 BEGIN BOND
M  V30 1 1 1 2
M  V30 2 2 2 3
M  V30 3 1 2 4
M  V30 4 1 3 5
M  V30 5 1 3 6
M  V30 6 2 4 7
M  V30 7 2 5 8
M  V30 8 1 5 9
M  V30 9 2 6 10
M  V30 10 1 9 11
M  V30 11 1 10 12
M  V30 12 2 11 13
M  V30 13 1 11 14
M  V30 14 2 12 15
M  V30 15 1 12 16
M  V30 16 1 13 17
M  V30 17 2 14 18
M  V30 18 1 17 19
M  V30 19 2 17 20
M  V30 20 1 19 21
M  V30 21 1 20 22
M  V30 22 1 21 23
M  V30 23 2 23 24
M  V30 24 1 23 25
M  V30 25 1 24 26
M  V30 26 2 25 27
M  V30 27 2 26 28
M  V30 28 1 28 29
M  V30 29 1 7 10
M  V30 30 1 18 20
M  V30 31 2 21 22
M  V30 32 1 27 28
M  V30 END BOND
M  V30 END CTAB
M  END
>  <Molecule ChEMBL ID>
CHEMBL5182665

>  <Smiles>
Cc1ccc(-c2nc3ccc(NC(=O)c4cc([N+](=O)[O-])ccc4Cl)cc3o2)cc1

>  <IC50_nM>
1800

>  <Assay Description>
Inverse agonist activity at PPARgamma in human RT112/84-FABP4 cells assessed as reduction in PPARgamma transactivation measured by Nanoluciferase reporter gene assay

$$$$
CHEMBL3398433
Actelion Java MolfileCreator 2.0

  0  0  0  0  0  0              0 V3000
M  V30 BEGIN CTAB
M  V30 COUNTS 39 43 0 0 0
M  V30 BEGIN ATOM
M  V30 1 O 9.2271 1.0408 0.0 0
M  V30 2 C 8.6393 0.2318 0.0 0
M  V30 3 O 9.0461 -0.6816 0.0 0
M  V30 4 N 7.6448 0.3364 0.0 0
M  V30 5 C 8.4583 -1.4906 0.0 0
M  V30 6 C 6.9757 -0.4067 0.0 0
M  V30 7 C 7.1448 1.2024 0.0 0
M  V30 8 C 8.865 -2.4042 0.0 0
M  V30 9 C 7.4638 -1.3861 0.0 0
M  V30 10 C 6.0621 0.0 0.0 0 CFG=1
M  V30 11 C 6.1667 0.9945 0.0 0 CFG=1
M  V30 12 C 8.2772 -3.2132 0.0 0
M  V30 13 C 6.876 -2.1951 0.0 0
M  V30 14 C 5.1961 -0.5 0.0 0
M  V30 15 C 5.4235 1.6636 0.0 0
M  V30 16 C 7.2827 -3.1087 0.0 0
M  V30 17 C 4.3301 0.0 0.0 0
M  V30 18 C 5.1961 -1.4999 0.0 0
M  V30 19 C 5.6314 2.6418 0.0 0
M  V30 20 C 3.4641 -0.5 0.0 0
M  V30 21 C 4.3301 -1.9999 0.0 0
M  V30 22 O 6.5825 2.9508 0.0 0
M  V30 23 O 4.8883 3.3109 0.0 0
M  V30 24 O 2.598 0.0 0.0 0
M  V30 25 C 3.4641 -1.4999 0.0 0
M  V30 26 C 1.732 -0.5 0.0 0
M  V30 27 C 0.866 0.0 0.0 0
M  V30 28 C 0.0 -0.5 0.0 0
M  V30 29 N -0.9135 -0.0932 0.0 0
M  V30 30 C -0.1045 -1.4945 0.0 0
M  V30 31 C -1.5826 -0.8364 0.0 0
M  V30 32 O -1.0826 -1.7024 0.0 0
M  V30 33 C 0.6386 -2.1636 0.0 0
M  V30 34 C -2.5771 -0.7318 0.0 0
M  V30 35 C -2.9839 0.1816 0.0 0
M  V30 36 C -3.1649 -1.5408 0.0 0
M  V30 37 C -3.9784 0.2861 0.0 0
M  V30 38 C -4.1595 -1.4363 0.0 0
M  V30 39 C -4.5662 -0.5228 0.0 0
M  V30 END ATOM
M  V30 BEGIN BOND
M  V30 1 2 1 2
M  V30 2 1 2 3
M  V30 3 1 2 4
M  V30 4 1 3 5
M  V30 5 1 4 6
M  V30 6 1 4 7
M  V30 7 2 5 8
M  V30 8 1 5 9
M  V30 9 1 6 10
M  V30 10 1 7 11
M  V30 11 1 8 12
M  V30 12 2 9 13
M  V30 13 1 10 14 CFG=3
M  V30 14 1 11 15 CFG=1
M  V30 15 2 12 16
M  V30 16 2 14 17
M  V30 17 1 14 18
M  V30 18 1 15 19
M  V30 19 1 17 20
M  V30 20 2 18 21
M  V30 21 2 19 22
M  V30 22 1 19 23
M  V30 23 1 20 24
M  V30 24 2 20 25
M  V30 25 1 24 26
M  V30 26 1 26 27
M  V30 27 1 27 28
M  V30 28 1 28 29
M  V30 29 2 28 30
M  V30 30 2 29 31
M  V30 31 1 30 32
M  V30 32 1 30 33
M  V30 33 1 31 34
M  V30 34 2 34 35
M  V30 35 1 34 36
M  V30 36 1 35 37
M  V30 37 2 36 38
M  V30 38 2 37 39
M  V30 39 1 10 11
M  V30 40 1 13 16
M  V30 41 1 21 25
M  V30 42 1 31 32
M  V30 43 1 38 39
M  V30 END BOND
M  V30 BEGIN COLLECTION
M  V30 MDLV30/STEABS ATOMS=(2 10 11)
M  V30 END COLLECTION
M  V30 END CTAB
M  END
>  <Molecule ChEMBL ID>
CHEMBL3398433

>  <Smiles>
Cc1oc(-c2ccccc2)nc1CCOc1cccc([C@H]2CN(C(=O)Oc3ccccc3)C[C@@H]2CC(=O)O)c1

>  <IC50_nM>
1820

>  <Assay Description>
Binding affinity to PPARgamma (unknown origin) using fluorescein-tagged dual PPARalpha/gamma activator by homogeneous fluorescence polarization binding assay

$$$$
CHEMBL1783064
Actelion Java MolfileCreator 2.0

  0  0  0  0  0  0              0 V3000
M  V30 BEGIN CTAB
M  V30 COUNTS 34 36 0 0 0
M  V30 BEGIN ATOM
M  V30 1 Cl 9.0932 1.5 0.0 0
M  V30 2 C 9.0932 0.0 0.0 0
M  V30 3 C 7.7942 -0.75 0.0 0
M  V30 4 C 10.3923 -0.75 0.0 0
M  V30 5 O 6.4952 0.0 0.0 0
M  V30 6 C 7.7942 -2.25 0.0 0
M  V30 7 C 10.3923 -2.25 0.0 0
M  V30 8 C 5.1961 -0.75 0.0 0
M  V30 9 C 9.0932 -3.0 0.0 0
M  V30 10 C 11.6913 -3.0 0.0 0
M  V30 11 C 3.8971 0.0 0.0 0
M  V30 12 O 9.0932 -4.5 0.0 0
M  V30 13 C 11.6913 -4.5 0.0 0
M  V30 14 C 12.9904 -2.25 0.0 0
M  V30 15 C 2.598 -0.75 0.0 0
M  V30 16 C 10.3923 -5.25 0.0 0
M  V30 17 C 14.2894 -3.0 0.0 0
M  V30 18 C 12.9904 -0.75 0.0 0
M  V30 19 O 1.299 0.0 0.0 0
M  V30 20 C 9.6423 -6.549 0.0 0
M  V30 21 C 11.1423 -6.549 0.0 0
M  V30 22 C 0.0 -0.75 0.0 0
M  V30 23 C -1.299 0.0 0.0 0
M  V30 24 C 0.0 -2.25 0.0 0
M  V30 25 C -2.598 -0.75 0.0 0
M  V30 26 C -1.299 -3.0 0.0 0
M  V30 27 C -2.598 -2.25 0.0 0
M  V30 28 C -3.8971 -3.0 0.0 0
M  V30 29 C -3.8971 -4.5 0.0 0
M  V30 30 C -5.1961 -5.25 0.0 0
M  V30 31 C -3.1471 -5.799 0.0 0
M  V30 32 C -2.3971 -4.4999 0.0 0
M  V30 33 O -6.4952 -4.5 0.0 0
M  V30 34 O -5.1961 -6.75 0.0 0
M  V30 END ATOM
M  V30 BEGIN BOND
M  V30 1 1 1 2
M  V30 2 2 2 3
M  V30 3 1 2 4
M  V30 4 1 3 5
M  V30 5 1 3 6
M  V30 6 2 4 7
M  V30 7 1 5 8
M  V30 8 2 6 9
M  V30 9 1 7 10
M  V30 10 1 8 11
M  V30 11 1 9 12
M  V30 12 2 10 13
M  V30 13 1 10 14
M  V30 14 1 11 15
M  V30 15 1 12 16
M  V30 16 1 14 17
M  V30 17 1 14 18
M  V30 18 1 15 19
M  V30 19 1 16 20
M  V30 20 1 16 21
M  V30 21 1 19 22
M  V30 22 2 22 23
M  V30 23 1 22 24
M  V30 24 1 23 25
M  V30 25 2 24 26
M  V30 26 2 25 27
M  V30 27 1 27 28
M  V30 28 1 28 29
M  V30 29 1 29 30
M  V30 30 1 29 31
M  V30 31 1 29 32
M  V30 32 2 30 33
M  V30 33 1 30 34
M  V30 34 1 7 9
M  V30 35 1 13 16
M  V30 36 1 26 27
M  V30 END BOND
M  V30 END CTAB
M  END
>  <Molecule ChEMBL ID>
CHEMBL1783064

>  <Smiles>
CC(C)C1=CC(C)(C)Oc2cc(OCCCOc3ccc(CC(C)(C)C(=O)O)cc3)c(Cl)cc21

>  <IC50_nM>
1845

>  <Assay Description>
Displacement of radio-labeled full agonist from PPARgamma receptor

$$$$
CHEMBL1783064
Actelion Java MolfileCreator 2.0

  0  0  0  0  0  0              0 V3000
M  V30 BEGIN CTAB
M  V30 COUNTS 34 36 0 0 0
M  V30 BEGIN ATOM
M  V30 1 Cl 9.0932 1.5 0.0 0
M  V30 2 C 9.0932 0.0 0.0 0
M  V30 3 C 7.7942 -0.75 0.0 0
M  V30 4 C 10.3923 -0.75 0.0 0
M  V30 5 O 6.4952 0.0 0.0 0
M  V30 6 C 7.7942 -2.25 0.0 0
M  V30 7 C 10.3923 -2.25 0.0 0
M  V30 8 C 5.1961 -0.75 0.0 0
M  V30 9 C 9.0932 -3.0 0.0 0
M  V30 10 C 11.6913 -3.0 0.0 0
M  V30 11 C 3.8971 0.0 0.0 0
M  V30 12 O 9.0932 -4.5 0.0 0
M  V30 13 C 11.6913 -4.5 0.0 0
M  V30 14 C 12.9904 -2.25 0.0 0
M  V30 15 C 2.598 -0.75 0.0 0
M  V30 16 C 10.3923 -5.25 0.0 0
M  V30 17 C 14.2894 -3.0 0.0 0
M  V30 18 C 12.9904 -0.75 0.0 0
M  V30 19 O 1.299 0.0 0.0 0
M  V30 20 C 9.6423 -6.549 0.0 0
M  V30 21 C 11.1423 -6.549 0.0 0
M  V30 22 C 0.0 -0.75 0.0 0
M  V30 23 C -1.299 0.0 0.0 0
M  V30 24 C 0.0 -2.25 0.0 0
M  V30 25 C -2.598 -0.75 0.0 0
M  V30 26 C -1.299 -3.0 0.0 0
M  V30 27 C -2.598 -2.25 0.0 0
M  V30 28 C -3.8971 -3.0 0.0 0
M  V30 29 C -3.8971 -4.5 0.0 0
M  V30 30 C -5.1961 -5.25 0.0 0
M  V30 31 C -3.1471 -5.799 0.0 0
M  V30 32 C -2.3971 -4.4999 0.0 0
M  V30 33 O -6.4952 -4.5 0.0 0
M  V30 34 O -5.1961 -6.75 0.0 0
M  V30 END ATOM
M  V30 BEGIN BOND
M  V30 1 1 1 2
M  V30 2 2 2 3
M  V30 3 1 2 4
M  V30 4 1 3 5
M  V30 5 1 3 6
M  V30 6 2 4 7
M  V30 7 1 5 8
M  V30 8 2 6 9
M  V30 9 1 7 10
M  V30 10 1 8 11
M  V30 11 1 9 12
M  V30 12 2 10 13
M  V30 13 1 10 14
M  V30 14 1 11 15
M  V30 15 1 12 16
M  V30 16 1 14 17
M  V30 17 1 14 18
M  V30 18 1 15 19
M  V30 19 1 16 20
M  V30 20 1 16 21
M  V30 21 1 19 22
M  V30 22 2 22 23
M  V30 23 1 22 24
M  V30 24 1 23 25
M  V30 25 2 24 26
M  V30 26 2 25 27
M  V30 27 1 27 28
M  V30 28 1 28 29
M  V30 29 1 29 30
M  V30 30 1 29 31
M  V30 31 1 29 32
M  V30 32 2 30 33
M  V30 33 1 30 34
M  V30 34 1 7 9
M  V30 35 1 13 16
M  V30 36 1 26 27
M  V30 END BOND
M  V30 END CTAB
M  END
>  <Molecule ChEMBL ID>
CHEMBL1783064

>  <Smiles>
CC(C)C1=CC(C)(C)Oc2cc(OCCCOc3ccc(CC(C)(C)C(=O)O)cc3)c(Cl)cc21

>  <IC50_nM>
1845

>  <Assay Description>
Binding affinity to human PPAR gamma

$$$$
CHEMBL1783065
Actelion Java MolfileCreator 2.0

  0  0  0  0  0  0              0 V3000
M  V30 BEGIN CTAB
M  V30 COUNTS 40 43 0 0 0
M  V30 BEGIN ATOM
M  V30 1 F 12.7894 1.5 0.0 0
M  V30 2 C 14.2894 1.5 0.0 0
M  V30 3 F 14.2894 3.0 0.0 0
M  V30 4 F 15.7894 1.5 0.0 0
M  V30 5 C 14.2894 0.0 0.0 0
M  V30 6 C 12.9904 -0.75 0.0 0
M  V30 7 C 15.5884 -0.75 0.0 0
M  V30 8 C 12.9904 -2.25 0.0 0
M  V30 9 C 15.5884 -2.25 0.0 0
M  V30 10 C 11.6913 -3.0 0.0 0
M  V30 11 C 14.2894 -3.0 0.0 0
M  V30 12 C 10.3923 -2.25 0.0 0
M  V30 13 C 11.6913 -4.5 0.0 0
M  V30 14 C 9.0932 -3.0 0.0 0
M  V30 15 C 10.3923 -0.75 0.0 0
M  V30 16 C 10.3923 -5.25 0.0 0
M  V30 17 O 9.0932 -4.5 0.0 0
M  V30 18 C 7.7942 -2.25 0.0 0
M  V30 19 C 9.0932 0.0 0.0 0
M  V30 20 C 9.6423 -6.549 0.0 0
M  V30 21 C 11.1423 -6.549 0.0 0
M  V30 22 C 7.7942 -0.75 0.0 0
M  V30 23 O 6.4952 0.0 0.0 0
M  V30 24 C 5.1961 -0.75 0.0 0
M  V30 25 C 3.8971 0.0 0.0 0
M  V30 26 C 2.598 -0.75 0.0 0
M  V30 27 O 1.299 0.0 0.0 0
M  V30 28 C 0.0 -0.75 0.0 0
M  V30 29 C -1.299 0.0 0.0 0
M  V30 30 C 0.0 -2.25 0.0 0
M  V30 31 C -2.598 -0.75 0.0 0
M  V30 32 C -1.299 -3.0 0.0 0
M  V30 33 C -2.598 -2.25 0.0 0
M  V30 34 C -3.8971 -3.0 0.0 0
M  V30 35 C -3.8971 -4.5 0.0 0
M  V30 36 C -5.1961 -5.25 0.0 0
M  V30 37 C -3.1471 -5.799 0.0 0
M  V30 38 C -2.3971 -4.4999 0.0 0
M  V30 39 O -6.4952 -4.5 0.0 0
M  V30 40 O -5.1961 -6.75 0.0 0
M  V30 END ATOM
M  V30 BEGIN BOND
M  V30 1 1 1 2
M  V30 2 1 2 3
M  V30 3 1 2 4
M  V30 4 1 2 5
M  V30 5 2 5 6
M  V30 6 1 5 7
M  V30 7 1 6 8
M  V30 8 2 7 9
M  V30 9 1 8 10
M  V30 10 2 8 11
M  V30 11 1 10 12
M  V30 12 2 10 13
M  V30 13 2 12 14
M  V30 14 1 12 15
M  V30 15 1 13 16
M  V30 16 1 14 17
M  V30 17 1 14 18
M  V30 18 2 15 19
M  V30 19 1 16 20
M  V30 20 1 16 21
M  V30 21 2 18 22
M  V30 22 1 22 23
M  V30 23 1 23 24
M  V30 24 1 24 25
M  V30 25 1 25 26
M  V30 26 1 26 27
M  V30 27 1 27 28
M  V30 28 2 28 29
M  V30 29 1 28 30
M  V30 30 1 29 31
M  V30 31 2 30 32
M  V30 32 2 31 33
M  V30 33 1 33 34
M  V30 34 1 34 35
M  V30 35 1 35 36
M  V30 36 1 35 37
M  V30 37 1 35 38
M  V30 38 2 36 39
M  V30 39 1 36 40
M  V30 40 1 9 11
M  V30 41 1 16 17
M  V30 42 1 19 22
M  V30 43 1 32 33
M  V30 END BOND
M  V30 END CTAB
M  END
>  <Molecule ChEMBL ID>
CHEMBL1783065

>  <Smiles>
CC1(C)C=C(c2cccc(C(F)(F)F)c2)c2ccc(OCCCOc3ccc(CC(C)(C)C(=O)O)cc3)cc2O1

>  <IC50_nM>
1845

>  <Assay Description>
Displacement of radio-labeled full agonist from PPARgamma receptor

$$$$
CHEMBL424685
Actelion Java MolfileCreator 2.0

  0  0  0  0  0  0              0 V3000
M  V30 BEGIN CTAB
M  V30 COUNTS 32 34 0 0 0
M  V30 BEGIN ATOM
M  V30 1 Cl 6.0621 1.0 0.0 0
M  V30 2 C 6.0621 0.0 0.0 0
M  V30 3 C 5.1961 -0.5 0.0 0
M  V30 4 C 6.9282 -0.4999 0.0 0
M  V30 5 O 4.3301 0.0 0.0 0
M  V30 6 C 5.1961 -1.4999 0.0 0
M  V30 7 C 6.9282 -1.4999 0.0 0
M  V30 8 C 3.4641 -0.5 0.0 0
M  V30 9 C 6.0621 -1.9999 0.0 0
M  V30 10 C 7.7942 -1.9999 0.0 0
M  V30 11 C 2.598 0.0 0.0 0
M  V30 12 C 7.7942 -2.9999 0.0 0
M  V30 13 C 8.6602 -1.4999 0.0 0
M  V30 14 C 1.732 -0.5 0.0 0
M  V30 15 C 8.6602 -3.4999 0.0 0
M  V30 16 C 9.5262 -1.9999 0.0 0
M  V30 17 O 0.866 0.0 0.0 0
M  V30 18 C 9.5262 -2.9999 0.0 0
M  V30 19 C 0.0 -0.5 0.0 0
M  V30 20 C -0.866 0.0 0.0 0
M  V30 21 C 0.0 -1.4999 0.0 0
M  V30 22 C -1.732 -0.4999 0.0 0
M  V30 23 C -0.866 -1.9999 0.0 0
M  V30 24 C -1.732 -1.4999 0.0 0
M  V30 25 C -2.598 -1.9999 0.0 0
M  V30 26 C -2.598 -2.9999 0.0 0 CFG=1
M  V30 27 C -1.732 -3.4999 0.0 0
M  V30 28 C -3.4641 -3.4999 0.0 0
M  V30 29 C -1.732 -2.4999 0.0 0
M  V30 30 O -0.866 -2.9999 0.0 0
M  V30 31 O -1.732 -4.4999 0.0 0
M  V30 32 C -3.4641 -4.4999 0.0 0
M  V30 END ATOM
M  V30 BEGIN BOND
M  V30 1 1 1 2
M  V30 2 2 2 3
M  V30 3 1 2 4
M  V30 4 1 3 5
M  V30 5 1 3 6
M  V30 6 2 4 7
M  V30 7 1 5 8
M  V30 8 2 6 9
M  V30 9 1 7 10
M  V30 10 1 8 11
M  V30 11 1 10 12
M  V30 12 1 10 13
M  V30 13 1 11 14
M  V30 14 1 12 15
M  V30 15 1 13 16
M  V30 16 1 14 17
M  V30 17 1 15 18
M  V30 18 1 17 19
M  V30 19 2 19 20
M  V30 20 1 19 21
M  V30 21 1 20 22
M  V30 22 2 21 23
M  V30 23 2 22 24
M  V30 24 1 24 25
M  V30 25 1 25 26
M  V30 26 1 26 27
M  V30 27 1 26 28
M  V30 28 1 26 29 CFG=3
M  V30 29 2 27 30
M  V30 30 1 27 31
M  V30 31 1 28 32
M  V30 32 1 7 9
M  V30 33 1 16 18
M  V30 34 1 23 24
M  V30 END BOND
M  V30 BEGIN COLLECTION
M  V30 MDLV30/STEABS ATOMS=(1 26)
M  V30 END COLLECTION
M  V30 END CTAB
M  END
>  <Molecule ChEMBL ID>
CHEMBL424685

>  <Smiles>
CC[C@@](C)(Cc1ccc(OCCCOc2ccc(C3CCCCC3)cc2Cl)cc1)C(=O)O

>  <IC50_nM>
1851

>  <Assay Description>
Binding affinity to human PPAR gamma

$$$$
CHEMBL1783063
Actelion Java MolfileCreator 2.0

  0  0  0  0  0  0              0 V3000
M  V30 BEGIN CTAB
M  V30 COUNTS 32 34 0 0 0
M  V30 BEGIN ATOM
M  V30 1 Cl 6.0621 1.0 0.0 0
M  V30 2 C 6.0621 0.0 0.0 0
M  V30 3 C 5.1961 -0.5 0.0 0
M  V30 4 C 6.9282 -0.4999 0.0 0
M  V30 5 O 4.3301 0.0 0.0 0
M  V30 6 C 5.1961 -1.4999 0.0 0
M  V30 7 C 6.9282 -1.4999 0.0 0
M  V30 8 C 3.4641 -0.5 0.0 0
M  V30 9 C 6.0621 -1.9999 0.0 0
M  V30 10 C 7.7942 -1.9999 0.0 0
M  V30 11 C 2.598 0.0 0.0 0
M  V30 12 C 7.7942 -2.9999 0.0 0
M  V30 13 C 8.6602 -1.4999 0.0 0
M  V30 14 C 1.732 -0.5 0.0 0
M  V30 15 C 8.6602 -3.4999 0.0 0
M  V30 16 C 9.5262 -1.9999 0.0 0
M  V30 17 O 0.866 0.0 0.0 0
M  V30 18 C 9.5262 -2.9999 0.0 0
M  V30 19 C 0.0 -0.5 0.0 0
M  V30 20 C -0.866 0.0 0.0 0
M  V30 21 C 0.0 -1.4999 0.0 0
M  V30 22 C -1.732 -0.4999 0.0 0
M  V30 23 C -0.866 -1.9999 0.0 0
M  V30 24 C -1.732 -1.4999 0.0 0
M  V30 25 C -2.598 -1.9999 0.0 0
M  V30 26 C -2.598 -2.9999 0.0 0 CFG=2
M  V30 27 C -1.732 -3.4999 0.0 0
M  V30 28 C -3.4641 -3.4999 0.0 0
M  V30 29 C -1.732 -2.4999 0.0 0
M  V30 30 O -0.866 -2.9999 0.0 0
M  V30 31 O -1.732 -4.4999 0.0 0
M  V30 32 C -3.4641 -4.4999 0.0 0
M  V30 END ATOM
M  V30 BEGIN BOND
M  V30 1 1 1 2
M  V30 2 2 2 3
M  V30 3 1 2 4
M  V30 4 1 3 5
M  V30 5 1 3 6
M  V30 6 2 4 7
M  V30 7 1 5 8
M  V30 8 2 6 9
M  V30 9 1 7 10
M  V30 10 1 8 11
M  V30 11 1 10 12
M  V30 12 1 10 13
M  V30 13 1 11 14
M  V30 14 1 12 15
M  V30 15 1 13 16
M  V30 16 1 14 17
M  V30 17 1 15 18
M  V30 18 1 17 19
M  V30 19 2 19 20
M  V30 20 1 19 21
M  V30 21 1 20 22
M  V30 22 2 21 23
M  V30 23 2 22 24
M  V30 24 1 24 25
M  V30 25 1 25 26
M  V30 26 1 26 27
M  V30 27 1 26 28
M  V30 28 1 26 29 CFG=1
M  V30 29 2 27 30
M  V30 30 1 27 31
M  V30 31 1 28 32
M  V30 32 1 7 9
M  V30 33 1 16 18
M  V30 34 1 23 24
M  V30 END BOND
M  V30 BEGIN COLLECTION
M  V30 MDLV30/STEABS ATOMS=(1 26)
M  V30 END COLLECTION
M  V30 END CTAB
M  END
>  <Molecule ChEMBL ID>
CHEMBL1783063

>  <Smiles>
CC[C@](C)(Cc1ccc(OCCCOc2ccc(C3CCCCC3)cc2Cl)cc1)C(=O)O

>  <IC50_nM>
1851

>  <Assay Description>
Displacement of radio-labeled full agonist from PPARgamma receptor

$$$$
CHEMBL383728
Actelion Java MolfileCreator 2.0

  0  0  0  0  0  0              0 V3000
M  V30 BEGIN CTAB
M  V30 COUNTS 33 36 0 0 0
M  V30 BEGIN ATOM
M  V30 1 F 7.9913 2.4393 0.0 0
M  V30 2 C 7.7834 1.4612 0.0 0
M  V30 3 F 8.7616 1.2533 0.0 0
M  V30 4 F 7.5755 0.483 0.0 0
M  V30 5 C 6.8053 1.6691 0.0 0
M  V30 6 N 6.3985 2.5826 0.0 0
M  V30 7 C 6.0621 0.9999 0.0 0
M  V30 8 O 5.404 2.4781 0.0 0
M  V30 9 C 5.1961 1.4999 0.0 0
M  V30 10 C 6.0621 0.0 0.0 0
M  V30 11 C 4.3301 0.9999 0.0 0
M  V30 12 C 5.1961 -0.4999 0.0 0
M  V30 13 C 4.3301 0.0 0.0 0
M  V30 14 C 3.4641 1.5 0.0 0
M  V30 15 O 3.4641 -0.5 0.0 0
M  V30 16 C 3.4641 2.5 0.0 0
M  V30 17 C 2.598 0.0 0.0 0
M  V30 18 C 2.598 3.0 0.0 0
M  V30 19 C 1.732 -0.5 0.0 0
M  V30 20 C 0.866 0.0 0.0 0
M  V30 21 N 0.0 -0.5 0.0 0
M  V30 22 C -0.9135 -0.0932 0.0 0
M  V30 23 C -0.1045 -1.4945 0.0 0
M  V30 24 C -1.5826 -0.8364 0.0 0
M  V30 25 C -1.2225 0.8577 0.0 0
M  V30 26 C -1.0826 -1.7024 0.0 0
M  V30 27 C -2.5608 -0.6284 0.0 0
M  V30 28 C -2.2007 1.0657 0.0 0
M  V30 29 C -2.8698 0.3225 0.0 0
M  V30 30 C -3.8479 0.5304 0.0 0
M  V30 31 C -4.157 1.4815 0.0 0
M  V30 32 O -3.4878 2.2246 0.0 0
M  V30 33 O -5.1351 1.6894 0.0 0
M  V30 END ATOM
M  V30 BEGIN BOND
M  V30 1 1 1 2
M  V30 2 1 2 3
M  V30 3 1 2 4
M  V30 4 1 2 5
M  V30 5 2 5 6
M  V30 6 1 5 7
M  V30 7 1 6 8
M  V30 8 2 7 9
M  V30 9 1 7 10
M  V30 10 1 9 11
M  V30 11 2 10 12
M  V30 12 2 11 13
M  V30 13 1 11 14
M  V30 14 1 13 15
M  V30 15 1 14 16
M  V30 16 1 15 17
M  V30 17 1 16 18
M  V30 18 1 17 19
M  V30 19 1 19 20
M  V30 20 1 20 21
M  V30 21 1 21 22
M  V30 22 1 21 23
M  V30 23 2 22 24
M  V30 24 1 22 25
M  V30 25 2 23 26
M  V30 26 1 24 27
M  V30 27 2 25 28
M  V30 28 2 27 29
M  V30 29 1 29 30
M  V30 30 1 30 31
M  V30 31 2 31 32
M  V30 32 1 31 33
M  V30 33 1 8 9
M  V30 34 1 12 13
M  V30 35 1 24 26
M  V30 36 1 28 29
M  V30 END BOND
M  V30 END CTAB
M  END
>  <Molecule ChEMBL ID>
CHEMBL383728

>  <Smiles>
CCCc1c(OCCCn2ccc3cc(CC(=O)O)ccc32)ccc2c(C(F)(F)F)noc12

>  <IC50_nM>
1900

>  <Assay Description>
Inhibition of PPAR gamma

$$$$
CHEMBL3398436
Actelion Java MolfileCreator 2.0

  0  0  0  0  0  0              0 V3000
M  V30 BEGIN CTAB
M  V30 COUNTS 35 38 0 0 0
M  V30 BEGIN ATOM
M  V30 1 O 9.4121 -2.7205 0.0 0
M  V30 2 C 8.4176 -2.6159 0.0 0
M  V30 3 O 7.8298 -3.4249 0.0 0
M  V30 4 N 8.0108 -1.7024 0.0 0
M  V30 5 C 6.8353 -3.3204 0.0 0
M  V30 6 C 8.5108 -0.8364 0.0 0
M  V30 7 C 7.0327 -1.4945 0.0 0
M  V30 8 C 6.2475 -4.1294 0.0 0
M  V30 9 C 7.8417 -0.0932 0.0 0 CFG=1
M  V30 10 C 6.9282 -0.5 0.0 0 CFG=2
M  V30 11 C 8.0496 0.8848 0.0 0
M  V30 12 C 6.0621 0.0 0.0 0
M  V30 13 O 9.0007 1.1939 0.0 0
M  V30 14 O 7.3065 1.554 0.0 0
M  V30 15 C 5.1961 -0.5 0.0 0
M  V30 16 C 4.3301 0.0 0.0 0
M  V30 17 C 5.1961 -1.4999 0.0 0
M  V30 18 C 3.4641 -0.5 0.0 0
M  V30 19 C 4.3301 -1.9999 0.0 0
M  V30 20 O 2.598 0.0 0.0 0
M  V30 21 C 3.4641 -1.4999 0.0 0
M  V30 22 C 1.732 -0.5 0.0 0
M  V30 23 C 0.866 0.0 0.0 0
M  V30 24 C 0.0 -0.5 0.0 0
M  V30 25 N -0.9135 -0.0932 0.0 0
M  V30 26 C -0.1045 -1.4945 0.0 0
M  V30 27 C -1.5826 -0.8364 0.0 0
M  V30 28 O -1.0826 -1.7024 0.0 0
M  V30 29 C 0.6386 -2.1636 0.0 0
M  V30 30 C -2.5771 -0.7318 0.0 0
M  V30 31 C -2.9839 0.1816 0.0 0
M  V30 32 C -3.1649 -1.5408 0.0 0
M  V30 33 C -3.9784 0.2861 0.0 0
M  V30 34 C -4.1595 -1.4363 0.0 0
M  V30 35 C -4.5662 -0.5228 0.0 0
M  V30 END ATOM
M  V30 BEGIN BOND
M  V30 1 2 1 2
M  V30 2 1 2 3
M  V30 3 1 2 4
M  V30 4 1 3 5
M  V30 5 1 4 6
M  V30 6 1 4 7
M  V30 7 1 5 8
M  V30 8 1 6 9
M  V30 9 1 7 10
M  V30 10 1 9 11 CFG=1
M  V30 11 1 10 12 CFG=1
M  V30 12 2 11 13
M  V30 13 1 11 14
M  V30 14 1 12 15
M  V30 15 2 15 16
M  V30 16 1 15 17
M  V30 17 1 16 18
M  V30 18 2 17 19
M  V30 19 1 18 20
M  V30 20 2 18 21
M  V30 21 1 20 22
M  V30 22 1 22 23
M  V30 23 1 23 24
M  V30 24 1 24 25
M  V30 25 2 24 26
M  V30 26 2 25 27
M  V30 27 1 26 28
M  V30 28 1 26 29
M  V30 29 1 27 30
M  V30 30 2 30 31
M  V30 31 1 30 32
M  V30 32 1 31 33
M  V30 33 2 32 34
M  V30 34 2 33 35
M  V30 35 1 9 10
M  V30 36 1 19 21
M  V30 37 1 27 28
M  V30 38 1 34 35
M  V30 END BOND
M  V30 BEGIN COLLECTION
M  V30 MDLV30/STEABS ATOMS=(2 9 10)
M  V30 END COLLECTION
M  V30 END CTAB
M  END
>  <Molecule ChEMBL ID>
CHEMBL3398436

>  <Smiles>
CCOC(=O)N1C[C@@H](Cc2cccc(OCCc3nc(-c4ccccc4)oc3C)c2)[C@@H](C(=O)O)C1

>  <IC50_nM>
1900

>  <Assay Description>
Binding affinity to PPARgamma (unknown origin) using fluorescein-tagged dual PPARalpha/gamma activator by homogeneous fluorescence polarization binding assay

$$$$
CHEMBL4463449
Actelion Java MolfileCreator 2.0

  0  0  0  0  0  0              0 V3000
M  V30 BEGIN CTAB
M  V30 COUNTS 46 49 0 0 0
M  V30 BEGIN ATOM
M  V30 1 F 10.9413 10.299 0.0 0
M  V30 2 C 11.6913 9.0 0.0 0
M  V30 3 F 12.9903 9.75 0.0 0
M  V30 4 F 12.4413 7.7009 0.0 0
M  V30 5 O 10.3923 8.25 0.0 0
M  V30 6 C 10.3923 6.75 0.0 0
M  V30 7 C 9.0932 6.0 0.0 0
M  V30 8 C 11.6913 6.0 0.0 0
M  V30 9 C 9.0932 4.4999 0.0 0
M  V30 10 C 11.6913 4.5 0.0 0
M  V30 11 C 10.3923 3.7499 0.0 0
M  V30 12 C 10.3923 2.25 0.0 0
M  V30 13 O 9.0932 1.5 0.0 0
M  V30 14 C 9.0932 0.0 0.0 0
M  V30 15 C 7.7942 -0.75 0.0 0
M  V30 16 C 10.3923 -0.7499 0.0 0
M  V30 17 C 7.7942 -2.25 0.0 0
M  V30 18 C 6.4951 0.0 0.0 0
M  V30 19 C 10.3923 -2.2499 0.0 0
M  V30 20 C 9.0932 -2.9999 0.0 0
M  V30 21 C 5.1961 -0.75 0.0 0
M  V30 22 O 9.0932 -4.4999 0.0 0
M  V30 23 C 3.8971 0.0 0.0 0
M  V30 24 C 5.1961 -2.25 0.0 0
M  V30 25 C 7.7942 -5.25 0.0 0
M  V30 26 O 2.598 -0.7499 0.0 0
M  V30 27 O 3.8971 1.4999 0.0 0
M  V30 28 C 3.8971 -2.9999 0.0 0
M  V30 29 C 7.7942 -6.75 0.0 0
M  V30 30 C 3.8971 -4.5 0.0 0
M  V30 31 C 6.4951 -7.5 0.0 0
M  V30 32 C 9.0932 -7.5 0.0 0
M  V30 33 C 2.598 -5.25 0.0 0
M  V30 34 C 6.4951 -8.9999 0.0 0
M  V30 35 C 9.0932 -9.0 0.0 0
M  V30 36 C 5.1961 -9.7499 0.0 0
M  V30 37 C 7.7942 -9.75 0.0 0
M  V30 38 O 3.8971 -8.9999 0.0 0
M  V30 39 C 5.1961 -11.25 0.0 0
M  V30 40 N 7.7942 -11.25 0.0 0
M  V30 41 C 2.598 -9.7499 0.0 0
M  V30 42 C 6.4951 -12.0 0.0 0
M  V30 43 C 6.4951 -13.5 0.0 0
M  V30 44 F 7.9951 -13.5 0.0 0
M  V30 45 F 6.4951 -15.0 0.0 0
M  V30 46 F 4.9951 -13.5 0.0 0
M  V30 END ATOM
M  V30 BEGIN BOND
M  V30 1 1 1 2
M  V30 2 1 2 3
M  V30 3 1 2 4
M  V30 4 1 2 5
M  V30 5 1 5 6
M  V30 6 2 6 7
M  V30 7 1 6 8
M  V30 8 1 7 9
M  V30 9 2 8 10
M  V30 10 2 9 11
M  V30 11 1 11 12
M  V30 12 1 12 13
M  V30 13 1 13 14
M  V30 14 2 14 15
M  V30 15 1 14 16
M  V30 16 1 15 17
M  V30 17 1 15 18
M  V30 18 2 16 19
M  V30 19 2 17 20
M  V30 20 2 18 21
M  V30 21 1 20 22
M  V30 22 1 21 23
M  V30 23 1 21 24
M  V30 24 1 22 25
M  V30 25 2 23 26
M  V30 26 1 23 27
M  V30 27 1 24 28
M  V30 28 1 25 29
M  V30 29 1 28 30
M  V30 30 2 29 31
M  V30 31 1 29 32
M  V30 32 1 30 33
M  V30 33 1 31 34
M  V30 34 2 32 35
M  V30 35 2 34 36
M  V30 36 1 34 37
M  V30 37 1 36 38
M  V30 38 1 36 39
M  V30 39 2 37 40
M  V30 40 1 38 41
M  V30 41 2 39 42
M  V30 42 1 42 43
M  V30 43 1 43 44
M  V30 44 1 43 45
M  V30 45 1 43 46
M  V30 46 1 10 11
M  V30 47 1 19 20
M  V30 48 1 35 37
M  V30 49 1 40 42
M  V30 END BOND
M  V30 END CTAB
M  END
>  <Molecule ChEMBL ID>
CHEMBL4463449

>  <Smiles>
CCCC/C(=C\c1cc(OCc2ccc3nc(C(F)(F)F)cc(OC)c3c2)ccc1OCc1ccc(OC(F)(F)F)cc1)C(=O)O

>  <IC50_nM>
1900

>  <Assay Description>
Antagonist actvity in pFA-GAL4-DBD fused PPARgamma LBD (unknown origin) transfected in HEK293T cells assessed as inhibition of rosiglitazone-induced PPARgamma transactivation incubated for 24 hrs by luciferase reporter gene assay

$$$$
CHEMBL383728
Actelion Java MolfileCreator 2.0

  0  0  0  0  0  0              0 V3000
M  V30 BEGIN CTAB
M  V30 COUNTS 33 36 0 0 0
M  V30 BEGIN ATOM
M  V30 1 F 7.9913 2.4393 0.0 0
M  V30 2 C 7.7834 1.4612 0.0 0
M  V30 3 F 8.7616 1.2533 0.0 0
M  V30 4 F 7.5755 0.483 0.0 0
M  V30 5 C 6.8053 1.6691 0.0 0
M  V30 6 N 6.3985 2.5826 0.0 0
M  V30 7 C 6.0621 0.9999 0.0 0
M  V30 8 O 5.404 2.4781 0.0 0
M  V30 9 C 5.1961 1.4999 0.0 0
M  V30 10 C 6.0621 0.0 0.0 0
M  V30 11 C 4.3301 0.9999 0.0 0
M  V30 12 C 5.1961 -0.4999 0.0 0
M  V30 13 C 4.3301 0.0 0.0 0
M  V30 14 C 3.4641 1.5 0.0 0
M  V30 15 O 3.4641 -0.5 0.0 0
M  V30 16 C 3.4641 2.5 0.0 0
M  V30 17 C 2.598 0.0 0.0 0
M  V30 18 C 2.598 3.0 0.0 0
M  V30 19 C 1.732 -0.5 0.0 0
M  V30 20 C 0.866 0.0 0.0 0
M  V30 21 N 0.0 -0.5 0.0 0
M  V30 22 C -0.9135 -0.0932 0.0 0
M  V30 23 C -0.1045 -1.4945 0.0 0
M  V30 24 C -1.5826 -0.8364 0.0 0
M  V30 25 C -1.2225 0.8577 0.0 0
M  V30 26 C -1.0826 -1.7024 0.0 0
M  V30 27 C -2.5608 -0.6284 0.0 0
M  V30 28 C -2.2007 1.0657 0.0 0
M  V30 29 C -2.8698 0.3225 0.0 0
M  V30 30 C -3.8479 0.5304 0.0 0
M  V30 31 C -4.157 1.4815 0.0 0
M  V30 32 O -3.4878 2.2246 0.0 0
M  V30 33 O -5.1351 1.6894 0.0 0
M  V30 END ATOM
M  V30 BEGIN BOND
M  V30 1 1 1 2
M  V30 2 1 2 3
M  V30 3 1 2 4
M  V30 4 1 2 5
M  V30 5 2 5 6
M  V30 6 1 5 7
M  V30 7 1 6 8
M  V30 8 2 7 9
M  V30 9 1 7 10
M  V30 10 1 9 11
M  V30 11 2 10 12
M  V30 12 2 11 13
M  V30 13 1 11 14
M  V30 14 1 13 15
M  V30 15 1 14 16
M  V30 16 1 15 17
M  V30 17 1 16 18
M  V30 18 1 17 19
M  V30 19 1 19 20
M  V30 20 1 20 21
M  V30 21 1 21 22
M  V30 22 1 21 23
M  V30 23 2 22 24
M  V30 24 1 22 25
M  V30 25 2 23 26
M  V30 26 1 24 27
M  V30 27 2 25 28
M  V30 28 2 27 29
M  V30 29 1 29 30
M  V30 30 1 30 31
M  V30 31 2 31 32
M  V30 32 1 31 33
M  V30 33 1 8 9
M  V30 34 1 12 13
M  V30 35 1 24 26
M  V30 36 1 28 29
M  V30 END BOND
M  V30 END CTAB
M  END
>  <Molecule ChEMBL ID>
CHEMBL383728

>  <Smiles>
CCCc1c(OCCCn2ccc3cc(CC(=O)O)ccc32)ccc2c(C(F)(F)F)noc12

>  <IC50_nM>
1900

>  <Assay Description>
Agonist activity at PPARgamma

$$$$
CHEMBL383728
Actelion Java MolfileCreator 2.0

  0  0  0  0  0  0              0 V3000
M  V30 BEGIN CTAB
M  V30 COUNTS 33 36 0 0 0
M  V30 BEGIN ATOM
M  V30 1 F 7.9913 2.4393 0.0 0
M  V30 2 C 7.7834 1.4612 0.0 0
M  V30 3 F 8.7616 1.2533 0.0 0
M  V30 4 F 7.5755 0.483 0.0 0
M  V30 5 C 6.8053 1.6691 0.0 0
M  V30 6 N 6.3985 2.5826 0.0 0
M  V30 7 C 6.0621 0.9999 0.0 0
M  V30 8 O 5.404 2.4781 0.0 0
M  V30 9 C 5.1961 1.4999 0.0 0
M  V30 10 C 6.0621 0.0 0.0 0
M  V30 11 C 4.3301 0.9999 0.0 0
M  V30 12 C 5.1961 -0.4999 0.0 0
M  V30 13 C 4.3301 0.0 0.0 0
M  V30 14 C 3.4641 1.5 0.0 0
M  V30 15 O 3.4641 -0.5 0.0 0
M  V30 16 C 3.4641 2.5 0.0 0
M  V30 17 C 2.598 0.0 0.0 0
M  V30 18 C 2.598 3.0 0.0 0
M  V30 19 C 1.732 -0.5 0.0 0
M  V30 20 C 0.866 0.0 0.0 0
M  V30 21 N 0.0 -0.5 0.0 0
M  V30 22 C -0.9135 -0.0932 0.0 0
M  V30 23 C -0.1045 -1.4945 0.0 0
M  V30 24 C -1.5826 -0.8364 0.0 0
M  V30 25 C -1.2225 0.8577 0.0 0
M  V30 26 C -1.0826 -1.7024 0.0 0
M  V30 27 C -2.5608 -0.6284 0.0 0
M  V30 28 C -2.2007 1.0657 0.0 0
M  V30 29 C -2.8698 0.3225 0.0 0
M  V30 30 C -3.8479 0.5304 0.0 0
M  V30 31 C -4.157 1.4815 0.0 0
M  V30 32 O -3.4878 2.2246 0.0 0
M  V30 33 O -5.1351 1.6894 0.0 0
M  V30 END ATOM
M  V30 BEGIN BOND
M  V30 1 1 1 2
M  V30 2 1 2 3
M  V30 3 1 2 4
M  V30 4 1 2 5
M  V30 5 2 5 6
M  V30 6 1 5 7
M  V30 7 1 6 8
M  V30 8 2 7 9
M  V30 9 1 7 10
M  V30 10 1 9 11
M  V30 11 2 10 12
M  V30 12 2 11 13
M  V30 13 1 11 14
M  V30 14 1 13 15
M  V30 15 1 14 16
M  V30 16 1 15 17
M  V30 17 1 16 18
M  V30 18 1 17 19
M  V30 19 1 19 20
M  V30 20 1 20 21
M  V30 21 1 21 22
M  V30 22 1 21 23
M  V30 23 2 22 24
M  V30 24 1 22 25
M  V30 25 2 23 26
M  V30 26 1 24 27
M  V30 27 2 25 28
M  V30 28 2 27 29
M  V30 29 1 29 30
M  V30 30 1 30 31
M  V30 31 2 31 32
M  V30 32 1 31 33
M  V30 33 1 8 9
M  V30 34 1 12 13
M  V30 35 1 24 26
M  V30 36 1 28 29
M  V30 END BOND
M  V30 END CTAB
M  END
>  <Molecule ChEMBL ID>
CHEMBL383728

>  <Smiles>
CCCc1c(OCCCn2ccc3cc(CC(=O)O)ccc32)ccc2c(C(F)(F)F)noc12

>  <IC50_nM>
1901.08

>  <Assay Description>
Agonist activity at PPARgamma

$$$$
CHEMBL371097
Actelion Java MolfileCreator 2.0

  0  0  0  0  0  0              0 V3000
M  V30 BEGIN CTAB
M  V30 COUNTS 36 40 0 0 0
M  V30 BEGIN ATOM
M  V30 1 O 6.8835 -5.4154 0.0 0
M  V30 2 C 6.2143 -4.6723 0.0 0
M  V30 3 O 5.2362 -4.8802 0.0 0
M  V30 4 C 6.5233 -3.7212 0.0 0
M  V30 5 N 5.8542 -2.9781 0.0 0
M  V30 6 C 6.0621 -2.0 0.0 0
M  V30 7 C 4.8597 -3.0826 0.0 0
M  V30 8 C 5.1961 -1.5 0.0 0
M  V30 9 C 6.9282 -1.5 0.0 0
M  V30 10 C 4.453 -2.1691 0.0 0
M  V30 11 C 5.1961 -0.5 0.0 0
M  V30 12 C 6.9282 -0.5 0.0 0
M  V30 13 O 4.3301 0.0 0.0 0
M  V30 14 C 6.0621 0.0 0.0 0
M  V30 15 C 3.4641 -0.5 0.0 0
M  V30 16 C 2.598 0.0 0.0 0
M  V30 17 C 1.732 -0.5 0.0 0
M  V30 18 O 0.866 0.0 0.0 0
M  V30 19 C 0.0 -0.5 0.0 0
M  V30 20 C -0.866 0.0 0.0 0
M  V30 21 C 0.0 -1.5 0.0 0
M  V30 22 C -1.732 -0.4999 0.0 0
M  V30 23 C -0.866 1.0 0.0 0
M  V30 24 C -0.866 -1.9999 0.0 0
M  V30 25 O -2.6831 -0.1909 0.0 0
M  V30 26 C -1.732 -1.4999 0.0 0
M  V30 27 C 0.0 1.5 0.0 0
M  V30 28 C -3.2708 -0.9999 0.0 0
M  V30 29 C -2.6831 -1.809 0.0 0
M  V30 30 C 0.0 2.5 0.0 0
M  V30 31 C -4.2708 -0.9999 0.0 0
M  V30 32 C -4.7708 -0.1339 0.0 0
M  V30 33 C -4.7708 -1.866 0.0 0
M  V30 34 C -5.7708 -0.1339 0.0 0
M  V30 35 C -5.7708 -1.866 0.0 0
M  V30 36 C -6.2708 -0.9999 0.0 0
M  V30 END ATOM
M  V30 BEGIN BOND
M  V30 1 2 1 2
M  V30 2 1 2 3
M  V30 3 1 2 4
M  V30 4 1 4 5
M  V30 5 1 5 6
M  V30 6 1 5 7
M  V30 7 2 6 8
M  V30 8 1 6 9
M  V30 9 2 7 10
M  V30 10 1 8 11
M  V30 11 2 9 12
M  V30 12 1 11 13
M  V30 13 2 11 14
M  V30 14 1 13 15
M  V30 15 1 15 16
M  V30 16 1 16 17
M  V30 17 1 17 18
M  V30 18 1 18 19
M  V30 19 2 19 20
M  V30 20 1 19 21
M  V30 21 1 20 22
M  V30 22 1 20 23
M  V30 23 2 21 24
M  V30 24 1 22 25
M  V30 25 2 22 26
M  V30 26 1 23 27
M  V30 27 1 25 28
M  V30 28 1 26 29
M  V30 29 1 27 30
M  V30 30 1 28 31
M  V30 31 2 31 32
M  V30 32 1 31 33
M  V30 33 1 32 34
M  V30 34 2 33 35
M  V30 35 2 34 36
M  V30 36 1 8 10
M  V30 37 1 12 14
M  V30 38 1 24 26
M  V30 39 2 28 29
M  V30 40 1 35 36
M  V30 END BOND
M  V30 END CTAB
M  END
>  <Molecule ChEMBL ID>
CHEMBL371097

>  <Smiles>
CCCc1c(OCCCOc2cccc3c2ccn3CC(=O)O)ccc2cc(-c3ccccc3)oc12

>  <IC50_nM>
1948

>  <Assay Description>
Displacement of [3H]rosiglitazone from human PPAR gamma by SPA assay

$$$$
CHEMBL121206
Actelion Java MolfileCreator 2.0

  0  0  0  0  0  0              0 V3000
M  V30 BEGIN CTAB
M  V30 COUNTS 34 37 0 0 0
M  V30 BEGIN ATOM
M  V30 1 F 9.1393 -2.451 0.0 0
M  V30 2 C 8.1882 -2.76 0.0 0
M  V30 3 F 8.4972 -3.7111 0.0 0
M  V30 4 F 7.2372 -3.069 0.0 0
M  V30 5 C 7.8792 -1.809 0.0 0
M  V30 6 N 8.467 -1.0 0.0 0
M  V30 7 C 6.9282 -1.5 0.0 0
M  V30 8 O 7.8792 -0.1909 0.0 0
M  V30 9 C 6.9282 -0.5 0.0 0
M  V30 10 C 6.0621 -2.0 0.0 0
M  V30 11 C 6.0621 0.0 0.0 0
M  V30 12 C 5.1961 -1.4999 0.0 0
M  V30 13 C 5.1961 -0.5 0.0 0
M  V30 14 C 6.0621 0.9999 0.0 0
M  V30 15 O 4.3301 0.0 0.0 0
M  V30 16 C 6.9282 1.4999 0.0 0
M  V30 17 C 3.4641 -0.5 0.0 0
M  V30 18 C 6.9282 2.4999 0.0 0
M  V30 19 C 2.598 0.0 0.0 0
M  V30 20 C 1.732 -0.5 0.0 0
M  V30 21 O 0.866 0.0 0.0 0
M  V30 22 C 0.0 -0.5 0.0 0
M  V30 23 C 0.0 -1.5 0.0 0
M  V30 24 C -0.866 0.0 0.0 0
M  V30 25 C -0.866 -1.9999 0.0 0
M  V30 26 C 0.7431 -2.1691 0.0 0
M  V30 27 C -1.732 -0.4999 0.0 0
M  V30 28 N -0.6581 -2.9781 0.0 0
M  V30 29 C -1.732 -1.4999 0.0 0
M  V30 30 C 0.3364 -3.0826 0.0 0
M  V30 31 C -1.3272 -3.7212 0.0 0
M  V30 32 C -2.3053 -3.5133 0.0 0
M  V30 33 O -2.6144 -2.5623 0.0 0
M  V30 34 O -2.9745 -4.2565 0.0 0
M  V30 END ATOM
M  V30 BEGIN BOND
M  V30 1 1 1 2
M  V30 2 1 2 3
M  V30 3 1 2 4
M  V30 4 1 2 5
M  V30 5 2 5 6
M  V30 6 1 5 7
M  V30 7 1 6 8
M  V30 8 2 7 9
M  V30 9 1 7 10
M  V30 10 1 9 11
M  V30 11 2 10 12
M  V30 12 2 11 13
M  V30 13 1 11 14
M  V30 14 1 13 15
M  V30 15 1 14 16
M  V30 16 1 15 17
M  V30 17 1 16 18
M  V30 18 1 17 19
M  V30 19 1 19 20
M  V30 20 1 20 21
M  V30 21 1 21 22
M  V30 22 2 22 23
M  V30 23 1 22 24
M  V30 24 1 23 25
M  V30 25 1 23 26
M  V30 26 2 24 27
M  V30 27 1 25 28
M  V30 28 2 25 29
M  V30 29 2 26 30
M  V30 30 1 28 31
M  V30 31 1 31 32
M  V30 32 2 32 33
M  V30 33 1 32 34
M  V30 34 1 8 9
M  V30 35 1 12 13
M  V30 36 1 27 29
M  V30 37 1 28 30
M  V30 END BOND
M  V30 END CTAB
M  END
>  <Molecule ChEMBL ID>
CHEMBL121206

>  <Smiles>
CCCc1c(OCCCOc2cccc3c2ccn3CC(=O)O)ccc2c(C(F)(F)F)noc12

>  <IC50_nM>
1986

>  <Assay Description>
Displacement of [3H]rosiglitazone from human PPAR gamma by SPA assay

$$$$
CHEMBL1089969
Actelion Java MolfileCreator 2.0

  0  0  0  0  0  0              0 V3000
M  V30 BEGIN CTAB
M  V30 COUNTS 42 46 0 0 0
M  V30 BEGIN ATOM
M  V30 1 O 5.1961 1.4999 0.0 0
M  V30 2 C 4.3301 0.9999 0.0 0
M  V30 3 O 4.3301 0.0 0.0 0
M  V30 4 N 3.4641 1.4999 0.0 0
M  V30 5 C 5.1961 -0.5 0.0 0
M  V30 6 C 2.598 1.0 0.0 0
M  V30 7 C 3.4641 2.4999 0.0 0
M  V30 8 C 6.0621 0.0 0.0 0
M  V30 9 C 5.1961 -1.5 0.0 0
M  V30 10 C 1.732 1.5 0.0 0
M  V30 11 C 4.3301 2.9999 0.0 0
M  V30 12 C 6.9282 -0.5 0.0 0
M  V30 13 C 6.0621 -2.0 0.0 0
M  V30 14 C 1.732 2.5 0.0 0
M  V30 15 C 0.866 1.0 0.0 0
M  V30 16 O 5.1961 2.4999 0.0 0
M  V30 17 O 4.3301 3.9999 0.0 0
M  V30 18 C 6.9282 -1.5 0.0 0
M  V30 19 C 0.866 3.0 0.0 0
M  V30 20 C 0.0 1.5 0.0 0
M  V30 21 C 7.7942 -2.0 0.0 0
M  V30 22 O 0.866 4.0 0.0 0
M  V30 23 C 0.0 2.5 0.0 0
M  V30 24 C 1.732 4.5 0.0 0
M  V30 25 C 1.732 5.5 0.0 0
M  V30 26 N 2.541 6.0877 0.0 0
M  V30 27 C 0.923 6.0877 0.0 0
M  V30 28 C 2.232 7.0388 0.0 0
M  V30 29 O 1.232 7.0388 0.0 0
M  V30 30 C -0.028 5.7787 0.0 0
M  V30 31 C 2.8198 7.8478 0.0 0
M  V30 32 C 3.8143 7.7433 0.0 0
M  V30 33 C 2.413 8.7614 0.0 0
M  V30 34 C 4.4021 8.5523 0.0 0
M  V30 35 C 3.0008 9.5704 0.0 0
M  V30 36 C 3.9954 9.4658 0.0 0
M  V30 37 C 4.5831 10.2749 0.0 0
M  V30 38 C 5.5777 10.1703 0.0 0
M  V30 39 C 4.1764 11.1884 0.0 0
M  V30 40 C 6.1654 10.9793 0.0 0
M  V30 41 C 4.7642 11.9974 0.0 0
M  V30 42 C 5.7587 11.8929 0.0 0
M  V30 END ATOM
M  V30 BEGIN BOND
M  V30 1 2 1 2
M  V30 2 1 2 3
M  V30 3 1 2 4
M  V30 4 1 3 5
M  V30 5 1 4 6
M  V30 6 1 4 7
M  V30 7 2 5 8
M  V30 8 1 5 9
M  V30 9 1 6 10
M  V30 10 1 7 11
M  V30 11 1 8 12
M  V30 12 2 9 13
M  V30 13 2 10 14
M  V30 14 1 10 15
M  V30 15 2 11 16
M  V30 16 1 11 17
M  V30 17 2 12 18
M  V30 18 1 14 19
M  V30 19 2 15 20
M  V30 20 1 18 21
M  V30 21 1 19 22
M  V30 22 2 19 23
M  V30 23 1 22 24
M  V30 24 1 24 25
M  V30 25 1 25 26
M  V30 26 2 25 27
M  V30 27 2 26 28
M  V30 28 1 27 29
M  V30 29 1 27 30
M  V30 30 1 28 31
M  V30 31 2 31 32
M  V30 32 1 31 33
M  V30 33 1 32 34
M  V30 34 2 33 35
M  V30 35 2 34 36
M  V30 36 1 36 37
M  V30 37 2 37 38
M  V30 38 1 37 39
M  V30 39 1 38 40
M  V30 40 2 39 41
M  V30 41 2 40 42
M  V30 42 1 13 18
M  V30 43 1 20 23
M  V30 44 1 28 29
M  V30 45 1 35 36
M  V30 46 1 41 42
M  V30 END BOND
M  V30 END CTAB
M  END
>  <Molecule ChEMBL ID>
CHEMBL1089969

>  <Smiles>
Cc1ccc(OC(=O)N(CC(=O)O)Cc2cccc(OCc3nc(-c4ccc(-c5ccccc5)cc4)oc3C)c2)cc1

>  <IC50_nM>
1988

>  <Assay Description>
Binding affinity to human His-tagged PPARgamma LBD (Q203-Y477) expressed in Escherichia coli BL21 (DE3) by fluorescence polarization assay

$$$$
CHEMBL495904
Actelion Java MolfileCreator 2.0

  0  0  0  0  0  0              0 V3000
M  V30 BEGIN CTAB
M  V30 COUNTS 32 35 0 0 0
M  V30 BEGIN ATOM
M  V30 1 S 5.1961 3.75 0.0 0
M  V30 2 O 4.4461 5.049 0.0 0
M  V30 3 O 3.6961 3.7499 0.0 0
M  V30 4 N 6.4951 4.5 0.0 0
M  V30 5 C 5.1961 2.25 0.0 0
M  V30 6 C 7.8655 3.8898 0.0 0
M  V30 7 C 6.6519 5.9917 0.0 0
M  V30 8 C 3.8971 1.5 0.0 0
M  V30 9 C 6.4951 1.5 0.0 0
M  V30 10 C 8.8692 5.0046 0.0 0
M  V30 11 C 8.329 2.4633 0.0 0
M  V30 12 C 8.1192 6.3036 0.0 0
M  V30 13 C 3.8971 0.0 0.0 0
M  V30 14 C 6.4951 0.0 0.0 0
M  V30 15 C 10.3364 4.6927 0.0 0
M  V30 16 C 9.7962 2.1514 0.0 0
M  V30 17 C 2.598 -0.75 0.0 0
M  V30 18 C 5.1961 -0.75 0.0 0
M  V30 19 C 10.7999 3.2661 0.0 0
M  V30 20 C 11.3401 5.8074 0.0 0
M  V30 21 O 2.598 -2.25 0.0 0
M  V30 22 N 1.299 0.0 0.0 0
M  V30 23 C 0.0 -0.75 0.0 0
M  V30 24 C -1.299 0.0 0.0 0
M  V30 25 C 0.0 -2.25 0.0 0
M  V30 26 C -1.299 1.5 0.0 0
M  V30 27 C -2.598 -0.75 0.0 0
M  V30 28 C -1.299 -3.0 0.0 0
M  V30 29 O 0.0 2.25 0.0 0
M  V30 30 O -2.598 2.25 0.0 0
M  V30 31 C -2.598 -2.25 0.0 0
M  V30 32 C -3.8971 -3.0 0.0 0
M  V30 END ATOM
M  V30 BEGIN BOND
M  V30 1 2 1 2
M  V30 2 2 1 3
M  V30 3 1 1 4
M  V30 4 1 1 5
M  V30 5 1 4 6
M  V30 6 1 4 7
M  V30 7 2 5 8
M  V30 8 1 5 9
M  V30 9 2 6 10
M  V30 10 1 6 11
M  V30 11 2 7 12
M  V30 12 1 8 13
M  V30 13 2 9 14
M  V30 14 1 10 15
M  V30 15 2 11 16
M  V30 16 1 13 17
M  V30 17 2 13 18
M  V30 18 2 15 19
M  V30 19 1 15 20
M  V30 20 2 17 21
M  V30 21 1 17 22
M  V30 22 1 22 23
M  V30 23 2 23 24
M  V30 24 1 23 25
M  V30 25 1 24 26
M  V30 26 1 24 27
M  V30 27 2 25 28
M  V30 28 2 26 29
M  V30 29 1 26 30
M  V30 30 2 27 31
M  V30 31 1 31 32
M  V30 32 1 10 12
M  V30 33 1 14 18
M  V30 34 1 16 19
M  V30 35 1 28 31
M  V30 END BOND
M  V30 END CTAB
M  END
>  <Molecule ChEMBL ID>
CHEMBL495904

>  <Smiles>
Cc1ccc(NC(=O)c2cccc(S(=O)(=O)n3ccc4c(C)cccc43)c2)c(C(=O)O)c1

>  <IC50_nM>
1995

>  <Assay Description>
Agonist activity at PPARgamma

$$$$
CHEMBL496744
Actelion Java MolfileCreator 2.0

  0  0  0  0  0  0              0 V3000
M  V30 BEGIN CTAB
M  V30 COUNTS 33 36 0 0 0
M  V30 BEGIN ATOM
M  V30 1 Cl 7.7942 2.25 0.0 0
M  V30 2 C 6.4951 1.5 0.0 0
M  V30 3 C 6.4951 0.0 0.0 0
M  V30 4 C 5.1961 2.25 0.0 0
M  V30 5 C 5.1961 -0.75 0.0 0
M  V30 6 C 3.8971 1.5 0.0 0
M  V30 7 C 3.8971 0.0 0.0 0
M  V30 8 C 5.1961 -2.25 0.0 0
M  V30 9 N 2.598 -0.75 0.0 0
M  V30 10 O 6.4951 -3.0 0.0 0
M  V30 11 O 3.8971 -3.0 0.0 0
M  V30 12 C 1.299 0.0 0.0 0
M  V30 13 O 1.299 1.5 0.0 0
M  V30 14 C 0.0 -0.75 0.0 0
M  V30 15 C -1.299 0.0 0.0 0
M  V30 16 C 0.0 -2.25 0.0 0
M  V30 17 C -2.598 -0.75 0.0 0
M  V30 18 C -1.299 -3.0 0.0 0
M  V30 19 S -3.8971 0.0 0.0 0
M  V30 20 C -2.598 -2.25 0.0 0
M  V30 21 O -3.1471 1.299 0.0 0
M  V30 22 O -4.6471 1.299 0.0 0
M  V30 23 N -5.1961 -0.75 0.0 0
M  V30 24 C -6.5664 -0.1398 0.0 0
M  V30 25 C -5.3529 -2.2417 0.0 0
M  V30 26 C -7.5701 -1.2546 0.0 0
M  V30 27 C -7.03 1.2866 0.0 0
M  V30 28 C -6.8201 -2.5536 0.0 0
M  V30 29 C -9.0373 -0.9427 0.0 0
M  V30 30 C -8.4972 1.5985 0.0 0
M  V30 31 O -10.041 -2.0574 0.0 0
M  V30 32 C -9.5009 0.4838 0.0 0
M  V30 33 C -9.5775 -3.484 0.0 0
M  V30 END ATOM
M  V30 BEGIN BOND
M  V30 1 1 1 2
M  V30 2 2 2 3
M  V30 3 1 2 4
M  V30 4 1 3 5
M  V30 5 2 4 6
M  V30 6 2 5 7
M  V30 7 1 5 8
M  V30 8 1 7 9
M  V30 9 2 8 10
M  V30 10 1 8 11
M  V30 11 1 9 12
M  V30 12 2 12 13
M  V30 13 1 12 14
M  V30 14 2 14 15
M  V30 15 1 14 16
M  V30 16 1 15 17
M  V30 17 2 16 18
M  V30 18 1 17 19
M  V30 19 2 17 20
M  V30 20 2 19 21
M  V30 21 2 19 22
M  V30 22 1 19 23
M  V30 23 1 23 24
M  V30 24 1 23 25
M  V30 25 2 24 26
M  V30 26 1 24 27
M  V30 27 2 25 28
M  V30 28 1 26 29
M  V30 29 2 27 30
M  V30 30 1 29 31
M  V30 31 2 29 32
M  V30 32 1 31 33
M  V30 33 1 6 7
M  V30 34 1 18 20
M  V30 35 1 26 28
M  V30 36 1 30 32
M  V30 END BOND
M  V30 END CTAB
M  END
>  <Molecule ChEMBL ID>
CHEMBL496744

>  <Smiles>
COc1cccc2c1ccn2S(=O)(=O)c1cccc(C(=O)Nc2ccc(Cl)cc2C(=O)O)c1

>  <IC50_nM>
1995.26

>  <Assay Description>
Agonist activity at PPARgamma

$$$$
CHEMBL495904
Actelion Java MolfileCreator 2.0

  0  0  0  0  0  0              0 V3000
M  V30 BEGIN CTAB
M  V30 COUNTS 32 35 0 0 0
M  V30 BEGIN ATOM
M  V30 1 S 5.1961 3.75 0.0 0
M  V30 2 O 4.4461 5.049 0.0 0
M  V30 3 O 3.6961 3.7499 0.0 0
M  V30 4 N 6.4951 4.5 0.0 0
M  V30 5 C 5.1961 2.25 0.0 0
M  V30 6 C 7.8655 3.8898 0.0 0
M  V30 7 C 6.6519 5.9917 0.0 0
M  V30 8 C 3.8971 1.5 0.0 0
M  V30 9 C 6.4951 1.5 0.0 0
M  V30 10 C 8.8692 5.0046 0.0 0
M  V30 11 C 8.329 2.4633 0.0 0
M  V30 12 C 8.1192 6.3036 0.0 0
M  V30 13 C 3.8971 0.0 0.0 0
M  V30 14 C 6.4951 0.0 0.0 0
M  V30 15 C 10.3364 4.6927 0.0 0
M  V30 16 C 9.7962 2.1514 0.0 0
M  V30 17 C 2.598 -0.75 0.0 0
M  V30 18 C 5.1961 -0.75 0.0 0
M  V30 19 C 10.7999 3.2661 0.0 0
M  V30 20 C 11.3401 5.8074 0.0 0
M  V30 21 O 2.598 -2.25 0.0 0
M  V30 22 N 1.299 0.0 0.0 0
M  V30 23 C 0.0 -0.75 0.0 0
M  V30 24 C -1.299 0.0 0.0 0
M  V30 25 C 0.0 -2.25 0.0 0
M  V30 26 C -1.299 1.5 0.0 0
M  V30 27 C -2.598 -0.75 0.0 0
M  V30 28 C -1.299 -3.0 0.0 0
M  V30 29 O 0.0 2.25 0.0 0
M  V30 30 O -2.598 2.25 0.0 0
M  V30 31 C -2.598 -2.25 0.0 0
M  V30 32 C -3.8971 -3.0 0.0 0
M  V30 END ATOM
M  V30 BEGIN BOND
M  V30 1 2 1 2
M  V30 2 2 1 3
M  V30 3 1 1 4
M  V30 4 1 1 5
M  V30 5 1 4 6
M  V30 6 1 4 7
M  V30 7 2 5 8
M  V30 8 1 5 9
M  V30 9 2 6 10
M  V30 10 1 6 11
M  V30 11 2 7 12
M  V30 12 1 8 13
M  V30 13 2 9 14
M  V30 14 1 10 15
M  V30 15 2 11 16
M  V30 16 1 13 17
M  V30 17 2 13 18
M  V30 18 2 15 19
M  V30 19 1 15 20
M  V30 20 2 17 21
M  V30 21 1 17 22
M  V30 22 1 22 23
M  V30 23 2 23 24
M  V30 24 1 23 25
M  V30 25 1 24 26
M  V30 26 1 24 27
M  V30 27 2 25 28
M  V30 28 2 26 29
M  V30 29 1 26 30
M  V30 30 2 27 31
M  V30 31 1 31 32
M  V30 32 1 10 12
M  V30 33 1 14 18
M  V30 34 1 16 19
M  V30 35 1 28 31
M  V30 END BOND
M  V30 END CTAB
M  END
>  <Molecule ChEMBL ID>
CHEMBL495904

>  <Smiles>
Cc1ccc(NC(=O)c2cccc(S(=O)(=O)n3ccc4c(C)cccc43)c2)c(C(=O)O)c1

>  <IC50_nM>
1995.26

>  <Assay Description>
Displacement of radiolabeled ligand from human PPARgamma by competition-binding assay

$$$$
CHEMBL496733
Actelion Java MolfileCreator 2.0

  0  0  0  0  0  0              0 V3000
M  V30 BEGIN CTAB
M  V30 COUNTS 32 35 0 0 0
M  V30 BEGIN ATOM
M  V30 1 Cl 5.1081 9.6478 0.0 0
M  V30 2 C 6.1118 8.533 0.0 0
M  V30 3 C 5.6482 7.1065 0.0 0
M  V30 4 C 7.579 8.8449 0.0 0
M  V30 5 C 6.6519 5.9917 0.0 0
M  V30 6 C 8.5827 7.7302 0.0 0
M  V30 7 N 6.4951 4.5 0.0 0
M  V30 8 C 8.1192 6.3036 0.0 0
M  V30 9 S 5.1961 3.75 0.0 0
M  V30 10 C 7.8655 3.8898 0.0 0
M  V30 11 C 8.8692 5.0046 0.0 0
M  V30 12 O 4.4461 5.049 0.0 0
M  V30 13 O 3.6961 3.7499 0.0 0
M  V30 14 C 5.1961 2.25 0.0 0
M  V30 15 C 3.8971 1.5 0.0 0
M  V30 16 C 6.4951 1.5 0.0 0
M  V30 17 C 3.8971 0.0 0.0 0
M  V30 18 C 6.4951 0.0 0.0 0
M  V30 19 C 2.598 -0.75 0.0 0
M  V30 20 C 5.1961 -0.75 0.0 0
M  V30 21 O 2.598 -2.25 0.0 0
M  V30 22 N 1.299 0.0 0.0 0
M  V30 23 C 0.0 -0.75 0.0 0
M  V30 24 C -1.299 0.0 0.0 0
M  V30 25 C 0.0 -2.25 0.0 0
M  V30 26 C -1.299 1.5 0.0 0
M  V30 27 C -2.598 -0.75 0.0 0
M  V30 28 C -1.299 -3.0 0.0 0
M  V30 29 O 0.0 2.25 0.0 0
M  V30 30 O -2.598 2.25 0.0 0
M  V30 31 C -2.598 -2.25 0.0 0
M  V30 32 C -3.8971 -3.0 0.0 0
M  V30 END ATOM
M  V30 BEGIN BOND
M  V30 1 1 1 2
M  V30 2 2 2 3
M  V30 3 1 2 4
M  V30 4 1 3 5
M  V30 5 2 4 6
M  V30 6 1 5 7
M  V30 7 2 5 8
M  V30 8 1 7 9
M  V30 9 1 7 10
M  V30 10 1 8 11
M  V30 11 2 9 12
M  V30 12 2 9 13
M  V30 13 1 9 14
M  V30 14 2 14 15
M  V30 15 1 14 16
M  V30 16 1 15 17
M  V30 17 2 16 18
M  V30 18 1 17 19
M  V30 19 2 17 20
M  V30 20 2 19 21
M  V30 21 1 19 22
M  V30 22 1 22 23
M  V30 23 2 23 24
M  V30 24 1 23 25
M  V30 25 1 24 26
M  V30 26 1 24 27
M  V30 27 2 25 28
M  V30 28 2 26 29
M  V30 29 1 26 30
M  V30 30 2 27 31
M  V30 31 1 31 32
M  V30 32 1 6 8
M  V30 33 2 10 11
M  V30 34 1 18 20
M  V30 35 1 28 31
M  V30 END BOND
M  V30 END CTAB
M  END
>  <Molecule ChEMBL ID>
CHEMBL496733

>  <Smiles>
Cc1ccc(NC(=O)c2cccc(S(=O)(=O)n3ccc4ccc(Cl)cc43)c2)c(C(=O)O)c1

>  <IC50_nM>
1995.26

>  <Assay Description>
Displacement of radiolabeled ligand from human PPARgamma by competition-binding assay

$$$$
CHEMBL1760414
Actelion Java MolfileCreator 2.0

  0  0  0  0  0  0              0 V3000
M  V30 BEGIN CTAB
M  V30 COUNTS 36 38 0 0 0
M  V30 BEGIN ATOM
M  V30 1 Cl -1.299 -7.5 0.0 0
M  V30 2 C 0.0 -6.75 0.0 0
M  V30 3 C 1.299 -7.5 0.0 0
M  V30 4 C 0.0 -5.25 0.0 0
M  V30 5 C 2.598 -6.75 0.0 0
M  V30 6 C 1.299 -4.5 0.0 0
M  V30 7 C 2.598 -5.25 0.0 0
M  V30 8 C 3.8971 -4.5 0.0 0
M  V30 9 C 5.1961 -5.25 0.0 0
M  V30 10 C 3.8971 -3.0 0.0 0
M  V30 11 F 5.1961 -6.75 0.0 0
M  V30 12 C 6.4951 -4.5 0.0 0
M  V30 13 C 5.1961 -2.25 0.0 0
M  V30 14 C 6.4951 -3.0 0.0 0
M  V30 15 N 5.1961 -0.75 0.0 0
M  V30 16 S 6.4951 0.0 0.0 0
M  V30 17 C 3.8971 0.0 0.0 0
M  V30 18 O 7.2451 1.299 0.0 0
M  V30 19 O 5.7451 1.299 0.0 0
M  V30 20 C 7.7942 -0.75 0.0 0
M  V30 21 C 2.598 -0.75 0.0 0
M  V30 22 C 9.0932 0.0 0.0 0
M  V30 23 C 7.7942 -2.25 0.0 0
M  V30 24 C 1.299 0.0 0.0 0
M  V30 25 C 10.3923 -0.75 0.0 0
M  V30 26 C 9.0932 1.5 0.0 0
M  V30 27 C 9.0932 -3.0 0.0 0
M  V30 28 C 0.0 -0.75 0.0 0
M  V30 29 C 10.3923 -2.25 0.0 0
M  V30 30 C 11.6913 0.0 0.0 0
M  V30 31 O 11.6913 -3.0 0.0 0
M  V30 32 C 11.6913 -4.5 0.0 0 CFG=2
M  V30 33 C 12.9903 -5.25 0.0 0
M  V30 34 C 10.3923 -5.25 0.0 0
M  V30 35 O 14.2894 -4.5 0.0 0
M  V30 36 O 12.9903 -6.75 0.0 0
M  V30 END ATOM
M  V30 BEGIN BOND
M  V30 1 1 1 2
M  V30 2 2 2 3
M  V30 3 1 2 4
M  V30 4 1 3 5
M  V30 5 2 4 6
M  V30 6 2 5 7
M  V30 7 1 7 8
M  V30 8 2 8 9
M  V30 9 1 8 10
M  V30 10 1 9 11
M  V30 11 1 9 12
M  V30 12 2 10 13
M  V30 13 2 12 14
M  V30 14 1 13 15
M  V30 15 1 15 16
M  V30 16 1 15 17
M  V30 17 2 16 18
M  V30 18 2 16 19
M  V30 19 1 16 20
M  V30 20 1 17 21
M  V30 21 2 20 22
M  V30 22 1 20 23
M  V30 23 1 21 24
M  V30 24 1 22 25
M  V30 25 1 22 26
M  V30 26 2 23 27
M  V30 27 1 24 28
M  V30 28 2 25 29
M  V30 29 1 25 30
M  V30 30 1 29 31
M  V30 31 1 31 32
M  V30 32 1 32 33
M  V30 33 1 32 34 CFG=3
M  V30 34 2 33 35
M  V30 35 1 33 36
M  V30 36 1 6 7
M  V30 37 1 13 14
M  V30 38 1 27 29
M  V30 END BOND
M  V30 BEGIN COLLECTION
M  V30 MDLV30/STERAC1 ATOMS=(1 32)
M  V30 END COLLECTION
M  V30 END CTAB
M  END
>  <Molecule ChEMBL ID>
CHEMBL1760414

>  <Smiles>
CCCCN(c1ccc(F)c(-c2ccc(Cl)cc2)c1)S(=O)(=O)c1ccc(OC(C)C(=O)O)c(C)c1C

>  <IC50_nM>
1995.26

>  <Assay Description>
Displacement of [3H]GW 2433 from human PPARgamma by scintillation proximity assay

$$$$
CHEMBL230804
Actelion Java MolfileCreator 2.0

  0  0  0  0  0  0              0 V3000
M  V30 BEGIN CTAB
M  V30 COUNTS 57 62 0 0 0
M  V30 BEGIN ATOM
M  V30 1 S 14.2894 -3.0 0.0 0
M  V30 2 C 12.9903 -2.25 0.0 0
M  V30 3 C 15.5884 -2.25 0.0 0
M  V30 4 C 12.9903 -0.75 0.0 0
M  V30 5 C 11.6913 -3.0 0.0 0
M  V30 6 C 16.8875 -3.0 0.0 0
M  V30 7 C 16.3384 -0.951 0.0 0
M  V30 8 C 14.8384 -0.951 0.0 0
M  V30 9 C 11.6913 0.0 0.0 0
M  V30 10 C 10.3923 -2.25 0.0 0
M  V30 11 O 16.8875 -4.5 0.0 0
M  V30 12 O 18.1865 -2.25 0.0 0
M  V30 13 C 10.3923 -0.75 0.0 0
M  V30 14 C 9.0932 0.0 0.0 0
M  V30 15 C 7.7942 -0.75 0.0 0
M  V30 16 C 6.4951 0.0 0.0 0
M  V30 17 O 6.4951 1.5 0.0 0
M  V30 18 N 5.1961 -0.75 0.0 0
M  V30 19 C 3.8971 0.0 0.0 0
M  V30 20 C 2.598 -0.75 0.0 0 CFG=1
M  V30 21 N 2.598 -2.25 0.0 0
M  V30 22 C 1.299 0.0 0.0 0
M  V30 23 C 3.8971 -3.0 0.0 0
M  V30 24 C 0.0 -0.75 0.0 0
M  V30 25 C 3.8971 -4.5 0.0 0
M  V30 26 C 5.1961 -2.25 0.0 0
M  V30 27 C -1.299 0.0 0.0 0
M  V30 28 C 0.0 -2.25 0.0 0
M  V30 29 C 2.598 -5.25 0.0 0
M  V30 30 C 5.1961 -5.25 0.0 0
M  V30 31 C 6.4951 -3.0 0.0 0
M  V30 32 C -2.598 -0.75 0.0 0
M  V30 33 C -1.299 -3.0 0.0 0
M  V30 34 O 1.299 -4.5 0.0 0
M  V30 35 C 2.598 -6.75 0.0 0
M  V30 36 C 6.4951 -4.5 0.0 0
M  V30 37 C -2.598 -2.25 0.0 0
M  V30 38 C 1.299 -7.5 0.0 0
M  V30 39 C 3.8971 -7.5 0.0 0
M  V30 40 O -3.8971 -3.0 0.0 0
M  V30 41 C 1.299 -9.0 0.0 0
M  V30 42 C 3.8971 -9.0 0.0 0
M  V30 43 C -3.8971 -4.5 0.0 0
M  V30 44 C 2.598 -9.75 0.0 0
M  V30 45 C -5.1961 -5.25 0.0 0
M  V30 46 C -5.1961 -6.75 0.0 0
M  V30 47 N -6.4096 -7.6316 0.0 0
M  V30 48 C -3.9826 -7.6316 0.0 0
M  V30 49 C -5.9461 -9.0582 0.0 0
M  V30 50 O -4.4461 -9.0582 0.0 0
M  V30 51 C -2.556 -7.1681 0.0 0
M  V30 52 C -6.8278 -10.2717 0.0 0
M  V30 53 C -8.3196 -10.115 0.0 0
M  V30 54 C -6.2177 -11.6421 0.0 0
M  V30 55 C -9.2012 -11.3285 0.0 0
M  V30 56 C -7.0994 -12.8556 0.0 0
M  V30 57 C -8.5911 -12.6988 0.0 0
M  V30 END ATOM
M  V30 BEGIN BOND
M  V30 1 1 1 2
M  V30 2 1 1 3
M  V30 3 2 2 4
M  V30 4 1 2 5
M  V30 5 1 3 6
M  V30 6 1 3 7
M  V30 7 1 3 8
M  V30 8 1 4 9
M  V30 9 2 5 10
M  V30 10 2 6 11
M  V30 11 1 6 12
M  V30 12 2 9 13
M  V30 13 1 13 14
M  V30 14 1 14 15
M  V30 15 1 15 16
M  V30 16 2 16 17
M  V30 17 1 16 18
M  V30 18 1 18 19
M  V30 19 1 19 20
M  V30 20 1 20 21 CFG=1
M  V30 21 1 20 22
M  V30 22 1 21 23
M  V30 23 1 22 24
M  V30 24 2 23 25
M  V30 25 1 23 26
M  V30 26 2 24 27
M  V30 27 1 24 28
M  V30 28 1 25 29
M  V30 29 1 25 30
M  V30 30 2 26 31
M  V30 31 1 27 32
M  V30 32 2 28 33
M  V30 33 2 29 34
M  V30 34 1 29 35
M  V30 35 2 30 36
M  V30 36 2 32 37
M  V30 37 2 35 38
M  V30 38 1 35 39
M  V30 39 1 37 40
M  V30 40 1 38 41
M  V30 41 2 39 42
M  V30 42 1 40 43
M  V30 43 2 41 44
M  V30 44 1 43 45
M  V30 45 1 45 46
M  V30 46 1 46 47
M  V30 47 2 46 48
M  V30 48 2 47 49
M  V30 49 1 48 50
M  V30 50 1 48 51
M  V30 51 1 49 52
M  V30 52 2 52 53
M  V30 53 1 52 54
M  V30 54 1 53 55
M  V30 55 2 54 56
M  V30 56 2 55 57
M  V30 57 1 10 13
M  V30 58 1 31 36
M  V30 59 1 33 37
M  V30 60 1 42 44
M  V30 61 1 49 50
M  V30 62 1 56 57
M  V30 END BOND
M  V30 BEGIN COLLECTION
M  V30 MDLV30/STEABS ATOMS=(1 20)
M  V30 END COLLECTION
M  V30 END CTAB
M  END
>  <Molecule ChEMBL ID>
CHEMBL230804

>  <Smiles>
Cc1oc(-c2ccccc2)nc1CCOc1ccc(C[C@@H](CNC(=O)CCc2ccc(SC(C)(C)C(=O)O)cc2)Nc2ccccc2C(=O)c2ccccc2)cc1

>  <IC50_nM>
1995.26

>  <Assay Description>
Inhibition of BRL-49653 stimulated human PPARgamma transactivation in CV-1 cells by GAL4 reporter assay

$$$$
CHEMBL495904
Actelion Java MolfileCreator 2.0

  0  0  0  0  0  0              0 V3000
M  V30 BEGIN CTAB
M  V30 COUNTS 32 35 0 0 0
M  V30 BEGIN ATOM
M  V30 1 S 5.1961 3.75 0.0 0
M  V30 2 O 4.4461 5.049 0.0 0
M  V30 3 O 3.6961 3.7499 0.0 0
M  V30 4 N 6.4951 4.5 0.0 0
M  V30 5 C 5.1961 2.25 0.0 0
M  V30 6 C 7.8655 3.8898 0.0 0
M  V30 7 C 6.6519 5.9917 0.0 0
M  V30 8 C 3.8971 1.5 0.0 0
M  V30 9 C 6.4951 1.5 0.0 0
M  V30 10 C 8.8692 5.0046 0.0 0
M  V30 11 C 8.329 2.4633 0.0 0
M  V30 12 C 8.1192 6.3036 0.0 0
M  V30 13 C 3.8971 0.0 0.0 0
M  V30 14 C 6.4951 0.0 0.0 0
M  V30 15 C 10.3364 4.6927 0.0 0
M  V30 16 C 9.7962 2.1514 0.0 0
M  V30 17 C 2.598 -0.75 0.0 0
M  V30 18 C 5.1961 -0.75 0.0 0
M  V30 19 C 10.7999 3.2661 0.0 0
M  V30 20 C 11.3401 5.8074 0.0 0
M  V30 21 O 2.598 -2.25 0.0 0
M  V30 22 N 1.299 0.0 0.0 0
M  V30 23 C 0.0 -0.75 0.0 0
M  V30 24 C -1.299 0.0 0.0 0
M  V30 25 C 0.0 -2.25 0.0 0
M  V30 26 C -1.299 1.5 0.0 0
M  V30 27 C -2.598 -0.75 0.0 0
M  V30 28 C -1.299 -3.0 0.0 0
M  V30 29 O 0.0 2.25 0.0 0
M  V30 30 O -2.598 2.25 0.0 0
M  V30 31 C -2.598 -2.25 0.0 0
M  V30 32 C -3.8971 -3.0 0.0 0
M  V30 END ATOM
M  V30 BEGIN BOND
M  V30 1 2 1 2
M  V30 2 2 1 3
M  V30 3 1 1 4
M  V30 4 1 1 5
M  V30 5 1 4 6
M  V30 6 1 4 7
M  V30 7 2 5 8
M  V30 8 1 5 9
M  V30 9 2 6 10
M  V30 10 1 6 11
M  V30 11 2 7 12
M  V30 12 1 8 13
M  V30 13 2 9 14
M  V30 14 1 10 15
M  V30 15 2 11 16
M  V30 16 1 13 17
M  V30 17 2 13 18
M  V30 18 2 15 19
M  V30 19 1 15 20
M  V30 20 2 17 21
M  V30 21 1 17 22
M  V30 22 1 22 23
M  V30 23 2 23 24
M  V30 24 1 23 25
M  V30 25 1 24 26
M  V30 26 1 24 27
M  V30 27 2 25 28
M  V30 28 2 26 29
M  V30 29 1 26 30
M  V30 30 2 27 31
M  V30 31 1 31 32
M  V30 32 1 10 12
M  V30 33 1 14 18
M  V30 34 1 16 19
M  V30 35 1 28 31
M  V30 END BOND
M  V30 END CTAB
M  END
>  <Molecule ChEMBL ID>
CHEMBL495904

>  <Smiles>
Cc1ccc(NC(=O)c2cccc(S(=O)(=O)n3ccc4c(C)cccc43)c2)c(C(=O)O)c1

>  <IC50_nM>
1995.26

>  <Assay Description>
Agonist activity at PPARgamma

$$$$
CHEMBL496744
Actelion Java MolfileCreator 2.0

  0  0  0  0  0  0              0 V3000
M  V30 BEGIN CTAB
M  V30 COUNTS 33 36 0 0 0
M  V30 BEGIN ATOM
M  V30 1 Cl 7.7942 2.25 0.0 0
M  V30 2 C 6.4951 1.5 0.0 0
M  V30 3 C 6.4951 0.0 0.0 0
M  V30 4 C 5.1961 2.25 0.0 0
M  V30 5 C 5.1961 -0.75 0.0 0
M  V30 6 C 3.8971 1.5 0.0 0
M  V30 7 C 3.8971 0.0 0.0 0
M  V30 8 C 5.1961 -2.25 0.0 0
M  V30 9 N 2.598 -0.75 0.0 0
M  V30 10 O 6.4951 -3.0 0.0 0
M  V30 11 O 3.8971 -3.0 0.0 0
M  V30 12 C 1.299 0.0 0.0 0
M  V30 13 O 1.299 1.5 0.0 0
M  V30 14 C 0.0 -0.75 0.0 0
M  V30 15 C -1.299 0.0 0.0 0
M  V30 16 C 0.0 -2.25 0.0 0
M  V30 17 C -2.598 -0.75 0.0 0
M  V30 18 C -1.299 -3.0 0.0 0
M  V30 19 S -3.8971 0.0 0.0 0
M  V30 20 C -2.598 -2.25 0.0 0
M  V30 21 O -3.1471 1.299 0.0 0
M  V30 22 O -4.6471 1.299 0.0 0
M  V30 23 N -5.1961 -0.75 0.0 0
M  V30 24 C -6.5664 -0.1398 0.0 0
M  V30 25 C -5.3529 -2.2417 0.0 0
M  V30 26 C -7.5701 -1.2546 0.0 0
M  V30 27 C -7.03 1.2866 0.0 0
M  V30 28 C -6.8201 -2.5536 0.0 0
M  V30 29 C -9.0373 -0.9427 0.0 0
M  V30 30 C -8.4972 1.5985 0.0 0
M  V30 31 O -10.041 -2.0574 0.0 0
M  V30 32 C -9.5009 0.4838 0.0 0
M  V30 33 C -9.5775 -3.484 0.0 0
M  V30 END ATOM
M  V30 BEGIN BOND
M  V30 1 1 1 2
M  V30 2 2 2 3
M  V30 3 1 2 4
M  V30 4 1 3 5
M  V30 5 2 4 6
M  V30 6 2 5 7
M  V30 7 1 5 8
M  V30 8 1 7 9
M  V30 9 2 8 10
M  V30 10 1 8 11
M  V30 11 1 9 12
M  V30 12 2 12 13
M  V30 13 1 12 14
M  V30 14 2 14 15
M  V30 15 1 14 16
M  V30 16 1 15 17
M  V30 17 2 16 18
M  V30 18 1 17 19
M  V30 19 2 17 20
M  V30 20 2 19 21
M  V30 21 2 19 22
M  V30 22 1 19 23
M  V30 23 1 23 24
M  V30 24 1 23 25
M  V30 25 2 24 26
M  V30 26 1 24 27
M  V30 27 2 25 28
M  V30 28 1 26 29
M  V30 29 2 27 30
M  V30 30 1 29 31
M  V30 31 2 29 32
M  V30 32 1 31 33
M  V30 33 1 6 7
M  V30 34 1 18 20
M  V30 35 1 26 28
M  V30 36 1 30 32
M  V30 END BOND
M  V30 END CTAB
M  END
>  <Molecule ChEMBL ID>
CHEMBL496744

>  <Smiles>
COc1cccc2c1ccn2S(=O)(=O)c1cccc(C(=O)Nc2ccc(Cl)cc2C(=O)O)c1

>  <IC50_nM>
1995.26

>  <Assay Description>
Displacement of radiolabeled ligand from human PPARgamma by competition-binding assay

$$$$
CHEMBL496733
Actelion Java MolfileCreator 2.0

  0  0  0  0  0  0              0 V3000
M  V30 BEGIN CTAB
M  V30 COUNTS 32 35 0 0 0
M  V30 BEGIN ATOM
M  V30 1 Cl 5.1081 9.6478 0.0 0
M  V30 2 C 6.1118 8.533 0.0 0
M  V30 3 C 5.6482 7.1065 0.0 0
M  V30 4 C 7.579 8.8449 0.0 0
M  V30 5 C 6.6519 5.9917 0.0 0
M  V30 6 C 8.5827 7.7302 0.0 0
M  V30 7 N 6.4951 4.5 0.0 0
M  V30 8 C 8.1192 6.3036 0.0 0
M  V30 9 S 5.1961 3.75 0.0 0
M  V30 10 C 7.8655 3.8898 0.0 0
M  V30 11 C 8.8692 5.0046 0.0 0
M  V30 12 O 4.4461 5.049 0.0 0
M  V30 13 O 3.6961 3.7499 0.0 0
M  V30 14 C 5.1961 2.25 0.0 0
M  V30 15 C 3.8971 1.5 0.0 0
M  V30 16 C 6.4951 1.5 0.0 0
M  V30 17 C 3.8971 0.0 0.0 0
M  V30 18 C 6.4951 0.0 0.0 0
M  V30 19 C 2.598 -0.75 0.0 0
M  V30 20 C 5.1961 -0.75 0.0 0
M  V30 21 O 2.598 -2.25 0.0 0
M  V30 22 N 1.299 0.0 0.0 0
M  V30 23 C 0.0 -0.75 0.0 0
M  V30 24 C -1.299 0.0 0.0 0
M  V30 25 C 0.0 -2.25 0.0 0
M  V30 26 C -1.299 1.5 0.0 0
M  V30 27 C -2.598 -0.75 0.0 0
M  V30 28 C -1.299 -3.0 0.0 0
M  V30 29 O 0.0 2.25 0.0 0
M  V30 30 O -2.598 2.25 0.0 0
M  V30 31 C -2.598 -2.25 0.0 0
M  V30 32 C -3.8971 -3.0 0.0 0
M  V30 END ATOM
M  V30 BEGIN BOND
M  V30 1 1 1 2
M  V30 2 2 2 3
M  V30 3 1 2 4
M  V30 4 1 3 5
M  V30 5 2 4 6
M  V30 6 1 5 7
M  V30 7 2 5 8
M  V30 8 1 7 9
M  V30 9 1 7 10
M  V30 10 1 8 11
M  V30 11 2 9 12
M  V30 12 2 9 13
M  V30 13 1 9 14
M  V30 14 2 14 15
M  V30 15 1 14 16
M  V30 16 1 15 17
M  V30 17 2 16 18
M  V30 18 1 17 19
M  V30 19 2 17 20
M  V30 20 2 19 21
M  V30 21 1 19 22
M  V30 22 1 22 23
M  V30 23 2 23 24
M  V30 24 1 23 25
M  V30 25 1 24 26
M  V30 26 1 24 27
M  V30 27 2 25 28
M  V30 28 2 26 29
M  V30 29 1 26 30
M  V30 30 2 27 31
M  V30 31 1 31 32
M  V30 32 1 6 8
M  V30 33 2 10 11
M  V30 34 1 18 20
M  V30 35 1 28 31
M  V30 END BOND
M  V30 END CTAB
M  END
>  <Molecule ChEMBL ID>
CHEMBL496733

>  <Smiles>
Cc1ccc(NC(=O)c2cccc(S(=O)(=O)n3ccc4ccc(Cl)cc43)c2)c(C(=O)O)c1

>  <IC50_nM>
1995.26

>  <Assay Description>
Agonist activity at PPARgamma

$$$$
CHEMBL53688
Actelion Java MolfileCreator 2.0

  0  0  0  0  0  0              0 V3000
M  V30 BEGIN CTAB
M  V30 COUNTS 39 42 0 0 0
M  V30 BEGIN ATOM
M  V30 1 S 6.9282 -6.5 0.0 0
M  V30 2 O 6.4282 -5.6339 0.0 0
M  V30 3 O 7.4282 -7.366 0.0 0
M  V30 4 N 7.7942 -6.0 0.0 0
M  V30 5 C 6.0621 -6.9999 0.0 0
M  V30 6 C 7.7942 -5.0 0.0 0
M  V30 7 C 8.6602 -4.5 0.0 0
M  V30 8 C 6.9282 -4.5 0.0 0
M  V30 9 C 8.6602 -3.5 0.0 0
M  V30 10 C 6.9282 -3.5 0.0 0
M  V30 11 C 7.7942 -3.0 0.0 0
M  V30 12 O 7.7942 -2.0 0.0 0
M  V30 13 C 6.9282 -1.5 0.0 0
M  V30 14 C 6.9282 -0.5 0.0 0
M  V30 15 C 6.0621 -2.0 0.0 0
M  V30 16 C 6.0621 0.0 0.0 0
M  V30 17 C 5.1961 -1.5 0.0 0
M  V30 18 C 5.1961 -0.5 0.0 0
M  V30 19 C 6.0621 0.9999 0.0 0
M  V30 20 O 4.3301 0.0 0.0 0
M  V30 21 C 6.9282 1.4999 0.0 0
M  V30 22 C 3.4641 -0.5 0.0 0
M  V30 23 C 6.9282 2.4999 0.0 0
M  V30 24 C 2.598 0.0 0.0 0
M  V30 25 C 1.732 -0.5 0.0 0
M  V30 26 O 0.866 0.0 0.0 0
M  V30 27 C 0.0 -0.5 0.0 0
M  V30 28 C -0.866 0.0 0.0 0
M  V30 29 C 0.0 -1.4999 0.0 0
M  V30 30 C -1.732 -0.4999 0.0 0
M  V30 31 C -0.866 -1.9999 0.0 0
M  V30 32 C -1.732 -1.4999 0.0 0
M  V30 33 C -2.598 -1.9999 0.0 0 CFG=1
M  V30 34 S -3.5116 -1.5932 0.0 0
M  V30 35 C -2.7026 -2.9945 0.0 0
M  V30 36 C -4.1807 -2.3364 0.0 0
M  V30 37 O -1.9594 -3.6636 0.0 0
M  V30 38 N -3.6807 -3.2024 0.0 0
M  V30 39 O -5.1752 -2.2318 0.0 0
M  V30 END ATOM
M  V30 BEGIN BOND
M  V30 1 2 1 2
M  V30 2 2 1 3
M  V30 3 1 1 4
M  V30 4 1 1 5
M  V30 5 1 4 6
M  V30 6 2 6 7
M  V30 7 1 6 8
M  V30 8 1 7 9
M  V30 9 2 8 10
M  V30 10 2 9 11
M  V30 11 1 11 12
M  V30 12 1 12 13
M  V30 13 2 13 14
M  V30 14 1 13 15
M  V30 15 1 14 16
M  V30 16 2 15 17
M  V30 17 2 16 18
M  V30 18 1 16 19
M  V30 19 1 18 20
M  V30 20 1 19 21
M  V30 21 1 20 22
M  V30 22 1 21 23
M  V30 23 1 22 24
M  V30 24 1 24 25
M  V30 25 1 25 26
M  V30 26 1 26 27
M  V30 27 2 27 28
M  V30 28 1 27 29
M  V30 29 1 28 30
M  V30 30 2 29 31
M  V30 31 2 30 32
M  V30 32 1 33 32 CFG=3
M  V30 33 1 33 34
M  V30 34 1 33 35
M  V30 35 1 34 36
M  V30 36 2 35 37
M  V30 37 1 35 38
M  V30 38 2 36 39
M  V30 39 1 10 11
M  V30 40 1 17 18
M  V30 41 1 31 32
M  V30 42 1 36 38
M  V30 END BOND
M  V30 BEGIN COLLECTION
M  V30 MDLV30/STERAC1 ATOMS=(1 33)
M  V30 END COLLECTION
M  V30 END CTAB
M  END
>  <Molecule ChEMBL ID>
CHEMBL53688

>  <Smiles>
CCCc1cc(Oc2ccc(NS(C)(=O)=O)cc2)ccc1OCCCOc1ccc(C2SC(=O)NC2=O)cc1

>  <IC50_nM>
2000

>  <Assay Description>
In vitro binding affinity against human PPAR gamma (peroxisome proliferator-activated gamma receptor)

$$$$
CHEMBL513904
Actelion Java MolfileCreator 2.0

  0  0  0  0  0  0              0 V3000
M  V30 BEGIN CTAB
M  V30 COUNTS 27 29 0 0 0
M  V30 BEGIN ATOM
M  V30 1 O 9.5262 0.9999 0.0 0
M  V30 2 C 8.6602 1.4999 0.0 0
M  V30 3 O 8.6602 2.4999 0.0 0
M  V30 4 C 7.7942 0.9999 0.0 0 CFG=1
M  V30 5 N 7.7942 0.0 0.0 0
M  V30 6 C 6.9282 1.4999 0.0 0
M  V30 7 C 6.9852 -0.5877 0.0 0
M  V30 8 C 8.6032 -0.5877 0.0 0
M  V30 9 C 6.0621 0.9999 0.0 0
M  V30 10 C 7.2942 -1.5388 0.0 0
M  V30 11 C 8.2942 -1.5388 0.0 0
M  V30 12 C 5.1961 1.4999 0.0 0
M  V30 13 C 6.0621 0.0 0.0 0
M  V30 14 C 4.3301 0.9999 0.0 0
M  V30 15 C 5.1961 -0.5 0.0 0
M  V30 16 C 4.3301 0.0 0.0 0
M  V30 17 C 3.4641 -0.5 0.0 0
M  V30 18 C 2.598 0.0 0.0 0
M  V30 19 C 1.732 -0.5 0.0 0
M  V30 20 N 0.866 0.0 0.0 0
M  V30 21 C 0.866 1.0 0.0 0
M  V30 22 C 0.0 -0.5 0.0 0
M  V30 23 C 1.732 1.4999 0.0 0
M  V30 24 C 0.0 1.4999 0.0 0
M  V30 25 C 1.732 2.5 0.0 0
M  V30 26 C 0.0 2.5 0.0 0
M  V30 27 C 0.866 3.0 0.0 0
M  V30 END ATOM
M  V30 BEGIN BOND
M  V30 1 2 1 2
M  V30 2 1 2 3
M  V30 3 1 2 4
M  V30 4 1 4 5 CFG=1
M  V30 5 1 4 6
M  V30 6 1 5 7
M  V30 7 1 5 8
M  V30 8 1 6 9
M  V30 9 2 7 10
M  V30 10 2 8 11
M  V30 11 2 9 12
M  V30 12 1 9 13
M  V30 13 1 12 14
M  V30 14 2 13 15
M  V30 15 2 14 16
M  V30 16 1 16 17
M  V30 17 2 17 18
M  V30 18 1 18 19
M  V30 19 1 19 20
M  V30 20 1 20 21
M  V30 21 1 20 22
M  V30 22 2 21 23
M  V30 23 1 21 24
M  V30 24 1 23 25
M  V30 25 2 24 26
M  V30 26 2 25 27
M  V30 27 1 10 11
M  V30 28 1 15 16
M  V30 29 1 26 27
M  V30 END BOND
M  V30 BEGIN COLLECTION
M  V30 MDLV30/STEABS ATOMS=(1 4)
M  V30 END COLLECTION
M  V30 END CTAB
M  END
>  <Molecule ChEMBL ID>
CHEMBL513904

>  <Smiles>
CN(C/C=C/c1ccc(C[C@@H](C(=O)O)n2cccc2)cc1)c1ccccc1

>  <IC50_nM>
2000

>  <Assay Description>
Displacement of [3H]darglitazone from human PPARgamma by scintillation proximity assay

$$$$
CHEMBL52426
Actelion Java MolfileCreator 2.0

  0  0  0  0  0  0              0 V3000
M  V30 BEGIN CTAB
M  V30 COUNTS 35 38 0 0 0
M  V30 BEGIN ATOM
M  V30 1 Cl 7.7942 -6.0 0.0 0
M  V30 2 C 7.7942 -5.0 0.0 0
M  V30 3 C 8.6602 -4.5 0.0 0
M  V30 4 C 6.9282 -4.5 0.0 0
M  V30 5 C 8.6602 -3.5 0.0 0
M  V30 6 C 6.9282 -3.5 0.0 0
M  V30 7 C 7.7942 -3.0 0.0 0
M  V30 8 O 7.7942 -2.0 0.0 0
M  V30 9 C 6.9282 -1.5 0.0 0
M  V30 10 C 6.9282 -0.5 0.0 0
M  V30 11 C 6.0621 -2.0 0.0 0
M  V30 12 C 6.0621 0.0 0.0 0
M  V30 13 C 5.1961 -1.5 0.0 0
M  V30 14 C 5.1961 -0.5 0.0 0
M  V30 15 C 6.0621 0.9999 0.0 0
M  V30 16 O 4.3301 0.0 0.0 0
M  V30 17 C 6.9282 1.4999 0.0 0
M  V30 18 C 3.4641 -0.5 0.0 0
M  V30 19 C 6.9282 2.4999 0.0 0
M  V30 20 C 2.598 0.0 0.0 0
M  V30 21 C 1.732 -0.5 0.0 0
M  V30 22 O 0.866 0.0 0.0 0
M  V30 23 C 0.0 -0.5 0.0 0
M  V30 24 C -0.866 0.0 0.0 0
M  V30 25 C 0.0 -1.4999 0.0 0
M  V30 26 C -1.732 -0.4999 0.0 0
M  V30 27 C -0.866 -1.9999 0.0 0
M  V30 28 C -1.732 -1.4999 0.0 0
M  V30 29 C -2.598 -1.9999 0.0 0 CFG=1
M  V30 30 S -3.5116 -1.5932 0.0 0
M  V30 31 C -2.7026 -2.9945 0.0 0
M  V30 32 C -4.1807 -2.3364 0.0 0
M  V30 33 O -1.9594 -3.6636 0.0 0
M  V30 34 N -3.6807 -3.2024 0.0 0
M  V30 35 O -5.1752 -2.2318 0.0 0
M  V30 END ATOM
M  V30 BEGIN BOND
M  V30 1 1 1 2
M  V30 2 2 2 3
M  V30 3 1 2 4
M  V30 4 1 3 5
M  V30 5 2 4 6
M  V30 6 2 5 7
M  V30 7 1 7 8
M  V30 8 1 8 9
M  V30 9 2 9 10
M  V30 10 1 9 11
M  V30 11 1 10 12
M  V30 12 2 11 13
M  V30 13 2 12 14
M  V30 14 1 12 15
M  V30 15 1 14 16
M  V30 16 1 15 17
M  V30 17 1 16 18
M  V30 18 1 17 19
M  V30 19 1 18 20
M  V30 20 1 20 21
M  V30 21 1 21 22
M  V30 22 1 22 23
M  V30 23 2 23 24
M  V30 24 1 23 25
M  V30 25 1 24 26
M  V30 26 2 25 27
M  V30 27 2 26 28
M  V30 28 1 29 28 CFG=3
M  V30 29 1 29 30
M  V30 30 1 29 31
M  V30 31 1 30 32
M  V30 32 2 31 33
M  V30 33 1 31 34
M  V30 34 2 32 35
M  V30 35 1 6 7
M  V30 36 1 13 14
M  V30 37 1 27 28
M  V30 38 1 32 34
M  V30 END BOND
M  V30 BEGIN COLLECTION
M  V30 MDLV30/STERAC1 ATOMS=(1 29)
M  V30 END COLLECTION
M  V30 END CTAB
M  END
>  <Molecule ChEMBL ID>
CHEMBL52426

>  <Smiles>
CCCc1cc(Oc2ccc(Cl)cc2)ccc1OCCCOc1ccc(C2SC(=O)NC2=O)cc1

>  <IC50_nM>
2000

>  <Assay Description>
In vitro binding affinity against human PPAR gamma (peroxisome proliferator-activated gamma receptor)

$$$$
CHEMBL333304
Actelion Java MolfileCreator 2.0

  0  0  0  0  0  0              0 V3000
M  V30 BEGIN CTAB
M  V30 COUNTS 25 27 0 0 0
M  V30 BEGIN ATOM
M  V30 1 S 7.8987 0.0054 0.0 0
M  V30 2 C 8.8769 -0.2024 0.0 0
M  V30 3 C 7.7942 0.9999 0.0 0 CFG=1
M  V30 4 O 9.2836 -1.1159 0.0 0
M  V30 5 N 9.3769 0.6635 0.0 0
M  V30 6 C 8.7077 1.4067 0.0 0
M  V30 7 C 6.9282 1.4999 0.0 0
M  V30 8 O 8.9156 2.3848 0.0 0
M  V30 9 C 6.0621 0.9999 0.0 0
M  V30 10 C 5.1961 1.4999 0.0 0
M  V30 11 C 6.0621 0.0 0.0 0
M  V30 12 C 4.3301 0.9999 0.0 0
M  V30 13 C 5.1961 -0.5 0.0 0
M  V30 14 C 4.3301 0.0 0.0 0
M  V30 15 O 3.4641 -0.5 0.0 0
M  V30 16 C 2.598 0.0 0.0 0
M  V30 17 C 1.732 -0.5 0.0 0
M  V30 18 N 0.866 0.0 0.0 0
M  V30 19 C 0.866 1.0 0.0 0
M  V30 20 C 0.0 -0.5 0.0 0
M  V30 21 N 1.732 1.4999 0.0 0
M  V30 22 C 0.0 1.4999 0.0 0
M  V30 23 C 1.732 2.5 0.0 0
M  V30 24 C 0.0 2.5 0.0 0
M  V30 25 C 0.866 3.0 0.0 0
M  V30 END ATOM
M  V30 BEGIN BOND
M  V30 1 1 1 2
M  V30 2 1 1 3
M  V30 3 2 2 4
M  V30 4 1 2 5
M  V30 5 1 3 6
M  V30 6 1 3 7 CFG=3
M  V30 7 2 6 8
M  V30 8 1 7 9
M  V30 9 2 9 10
M  V30 10 1 9 11
M  V30 11 1 10 12
M  V30 12 2 11 13
M  V30 13 2 12 14
M  V30 14 1 14 15
M  V30 15 1 15 16
M  V30 16 1 16 17
M  V30 17 1 17 18
M  V30 18 1 18 19
M  V30 19 1 18 20
M  V30 20 2 19 21
M  V30 21 1 19 22
M  V30 22 1 21 23
M  V30 23 2 22 24
M  V30 24 2 23 25
M  V30 25 1 5 6
M  V30 26 1 13 14
M  V30 27 1 24 25
M  V30 END BOND
M  V30 BEGIN COLLECTION
M  V30 MDLV30/STEABS ATOMS=(1 3)
M  V30 END COLLECTION
M  V30 END CTAB
M  END
>  <Molecule ChEMBL ID>
CHEMBL333304

>  <Smiles>
CN(CCOc1ccc(C[C@H]2SC(=O)NC2=O)cc1)c1ccccn1

>  <IC50_nM>
2000

>  <Assay Description>
Initial binding affinity against PPAR-gamma receptor

$$$$
CHEMBL360231
Actelion Java MolfileCreator 2.0

  0  0  0  0  0  0              0 V3000
M  V30 BEGIN CTAB
M  V30 COUNTS 32 35 0 0 0
M  V30 BEGIN ATOM
M  V30 1 Cl 6.0621 1.0 0.0 0
M  V30 2 C 6.0621 0.0 0.0 0
M  V30 3 C 5.1961 -0.5 0.0 0
M  V30 4 C 6.9282 -0.4999 0.0 0
M  V30 5 O 4.3301 0.0 0.0 0
M  V30 6 C 5.1961 -1.4999 0.0 0
M  V30 7 C 6.9282 -1.4999 0.0 0
M  V30 8 C 3.4641 -0.5 0.0 0
M  V30 9 C 6.0621 -1.9999 0.0 0
M  V30 10 O 7.7942 -1.9999 0.0 0
M  V30 11 C 2.598 0.0 0.0 0
M  V30 12 C 7.7942 -2.9999 0.0 0
M  V30 13 C 1.732 -0.5 0.0 0
M  V30 14 C 8.6602 -3.4999 0.0 0
M  V30 15 O 0.866 0.0 0.0 0
M  V30 16 C 8.919 -4.4659 0.0 0
M  V30 17 C 9.6261 -3.2411 0.0 0
M  V30 18 C 0.0 -0.5 0.0 0
M  V30 19 C 9.8849 -4.2071 0.0 0
M  V30 20 C -0.866 0.0 0.0 0
M  V30 21 C 0.0 -1.4999 0.0 0
M  V30 22 C -1.732 -0.4999 0.0 0
M  V30 23 C -0.866 -1.9999 0.0 0
M  V30 24 O -2.598 0.0 0.0 0
M  V30 25 C -1.732 -1.4999 0.0 0
M  V30 26 C -3.4641 -0.4999 0.0 0 CFG=1
M  V30 27 C -2.598 -1.9999 0.0 0
M  V30 28 C -4.3301 0.0 0.0 0
M  V30 29 C -3.4641 -1.4999 0.0 0
M  V30 30 C -4.3301 -0.9999 0.0 0
M  V30 31 O -5.1961 -0.4999 0.0 0
M  V30 32 O -4.3301 1.0 0.0 0
M  V30 END ATOM
M  V30 BEGIN BOND
M  V30 1 1 1 2
M  V30 2 2 2 3
M  V30 3 1 2 4
M  V30 4 1 3 5
M  V30 5 1 3 6
M  V30 6 2 4 7
M  V30 7 1 5 8
M  V30 8 2 6 9
M  V30 9 1 7 10
M  V30 10 1 8 11
M  V30 11 1 10 12
M  V30 12 1 11 13
M  V30 13 1 12 14
M  V30 14 1 13 15
M  V30 15 1 14 16
M  V30 16 1 14 17
M  V30 17 1 15 18
M  V30 18 1 16 19
M  V30 19 2 18 20
M  V30 20 1 18 21
M  V30 21 1 20 22
M  V30 22 2 21 23
M  V30 23 1 22 24
M  V30 24 2 22 25
M  V30 25 1 24 26
M  V30 26 1 25 27
M  V30 27 1 26 28
M  V30 28 1 26 29
M  V30 29 1 26 30 CFG=1
M  V30 30 2 28 31
M  V30 31 1 28 32
M  V30 32 1 7 9
M  V30 33 1 17 19
M  V30 34 1 23 25
M  V30 35 1 27 29
M  V30 END BOND
M  V30 BEGIN COLLECTION
M  V30 MDLV30/STEABS ATOMS=(1 26)
M  V30 END COLLECTION
M  V30 END CTAB
M  END
>  <Molecule ChEMBL ID>
CHEMBL360231

>  <Smiles>
C[C@]1(C(=O)O)CCc2ccc(OCCCOc3ccc(OCC4CCC4)cc3Cl)cc2O1

>  <IC50_nM>
2000

>  <Assay Description>
In vitro binding affinity against human PPARgamma

$$$$
CHEMBL2338488
Actelion Java MolfileCreator 2.0

  0  0  0  0  0  0              0 V3000
M  V30 BEGIN CTAB
M  V30 COUNTS 26 28 0 0 0
M  V30 BEGIN ATOM
M  V30 1 Cl 2.598 2.25 0.0 0
M  V30 2 C 3.8971 1.5 0.0 0
M  V30 3 C 3.8971 0.0 0.0 0
M  V30 4 C 5.1961 2.25 0.0 0
M  V30 5 S 2.598 -0.75 0.0 0
M  V30 6 C 5.1961 -0.75 0.0 0
M  V30 7 C 6.4952 1.5 0.0 0
M  V30 8 O 1.848 -2.049 0.0 0
M  V30 9 O 3.348 -2.049 0.0 0
M  V30 10 N 1.299 0.0 0.0 0
M  V30 11 C 6.4952 0.0 0.0 0
M  V30 12 Cl 7.7942 2.25 0.0 0
M  V30 13 C 0.0 -0.75 0.0 0
M  V30 14 C -1.299 0.0 0.0 0
M  V30 15 C 0.0 -2.25 0.0 0
M  V30 16 C -2.598 -0.75 0.0 0
M  V30 17 C -1.299 -3.0 0.0 0
M  V30 18 C -2.598 -2.25 0.0 0
M  V30 19 O -3.8971 -3.0 0.0 0
M  V30 20 C -3.8971 -4.5 0.0 0
M  V30 21 C -5.1961 -5.25 0.0 0
M  V30 22 C -2.598 -5.25 0.0 0
M  V30 23 N -5.1961 -6.75 0.0 0
M  V30 24 C -2.598 -6.75 0.0 0
M  V30 25 C -3.8971 -7.5 0.0 0
M  V30 26 Cl -1.299 -7.5 0.0 0
M  V30 END ATOM
M  V30 BEGIN BOND
M  V30 1 1 1 2
M  V30 2 2 2 3
M  V30 3 1 2 4
M  V30 4 1 3 5
M  V30 5 1 3 6
M  V30 6 2 4 7
M  V30 7 2 5 8
M  V30 8 2 5 9
M  V30 9 1 5 10
M  V30 10 2 6 11
M  V30 11 1 7 12
M  V30 12 1 10 13
M  V30 13 2 13 14
M  V30 14 1 13 15
M  V30 15 1 14 16
M  V30 16 2 15 17
M  V30 17 2 16 18
M  V30 18 1 18 19
M  V30 19 1 19 20
M  V30 20 2 20 21
M  V30 21 1 20 22
M  V30 22 1 21 23
M  V30 23 2 22 24
M  V30 24 2 23 25
M  V30 25 1 24 26
M  V30 26 1 7 11
M  V30 27 1 17 18
M  V30 28 1 24 25
M  V30 END BOND
M  V30 END CTAB
M  END
>  <Molecule ChEMBL ID>
CHEMBL2338488

>  <Smiles>
O=S(=O)(Nc1ccc(Oc2cncc(Cl)c2)cc1)c1ccc(Cl)cc1Cl

>  <IC50_nM>
2000

>  <Assay Description>
Displacement of [3H]-rosiglitazone from GST-tagged PPARgammaLBD (unknown origin) after 1 hr by scintillation proximity assay

$$$$
CHEMBL3558130
Actelion Java MolfileCreator 2.0

  0  0  0  0  0  0              0 V3000
M  V30 BEGIN CTAB
M  V30 COUNTS 32 35 0 0 0
M  V30 BEGIN ATOM
M  V30 1 Cl -0.866 0.9999 0.0 0
M  V30 2 C 0.0 1.4999 0.0 0
M  V30 3 C 0.866 0.9999 0.0 0
M  V30 4 C 0.0 2.4999 0.0 0
M  V30 5 C 1.732 1.5 0.0 0
M  V30 6 C 0.866 0.0 0.0 0
M  V30 7 C 0.866 3.0 0.0 0
M  V30 8 C 1.732 2.4999 0.0 0
M  V30 9 C 2.598 1.0 0.0 0
M  V30 10 O 1.732 -0.5 0.0 0
M  V30 11 N 0.0 -0.5 0.0 0
M  V30 12 F 3.098 1.866 0.0 0
M  V30 13 F 3.4641 0.5 0.0 0
M  V30 14 F 2.098 0.1339 0.0 0
M  V30 15 N -0.9135 -0.0932 0.0 0
M  V30 16 C -0.1045 -1.4945 0.0 0
M  V30 17 C -1.5826 -0.8364 0.0 0
M  V30 18 C -1.0826 -1.7024 0.0 0
M  V30 19 C 0.5646 -2.2376 0.0 0
M  V30 20 C -2.5771 -0.7318 0.0 0
M  V30 21 N -1.3916 -2.6534 0.0 0
M  V30 22 C 0.2555 -3.1887 0.0 0
M  V30 23 C -2.9839 0.1816 0.0 0
M  V30 24 C -3.1649 -1.5408 0.0 0
M  V30 25 C -0.7225 -3.3966 0.0 0
M  V30 26 F -2.3961 0.9906 0.0 0
M  V30 27 C -3.9784 0.2861 0.0 0
M  V30 28 C -4.1595 -1.4363 0.0 0
M  V30 29 C -4.5662 -0.5228 0.0 0
M  V30 30 C -5.5607 -0.4182 0.0 0
M  V30 31 O -5.9675 0.4952 0.0 0
M  V30 32 O -6.1485 -1.2273 0.0 0
M  V30 END ATOM
M  V30 BEGIN BOND
M  V30 1 1 1 2
M  V30 2 2 2 3
M  V30 3 1 2 4
M  V30 4 1 3 5
M  V30 5 1 3 6
M  V30 6 2 4 7
M  V30 7 2 5 8
M  V30 8 1 5 9
M  V30 9 2 6 10
M  V30 10 1 6 11
M  V30 11 1 9 12
M  V30 12 1 9 13
M  V30 13 1 9 14
M  V30 14 1 11 15
M  V30 15 1 11 16
M  V30 16 2 15 17
M  V30 17 2 16 18
M  V30 18 1 16 19
M  V30 19 1 17 20
M  V30 20 1 18 21
M  V30 21 2 19 22
M  V30 22 2 20 23
M  V30 23 1 20 24
M  V30 24 2 21 25
M  V30 25 1 23 26
M  V30 26 1 23 27
M  V30 27 2 24 28
M  V30 28 2 27 29
M  V30 29 1 29 30
M  V30 30 2 30 31
M  V30 31 1 30 32
M  V30 32 1 7 8
M  V30 33 1 17 18
M  V30 34 1 22 25
M  V30 35 1 28 29
M  V30 END BOND
M  V30 END CTAB
M  END
>  <Molecule ChEMBL ID>
CHEMBL3558130

>  <Smiles>
O=C(O)c1ccc(-c2nn(C(=O)c3c(Cl)cccc3C(F)(F)F)c3cccnc23)c(F)c1

>  <IC50_nM>
2000

>  <Assay Description>
Displacement of [3H]rosiglitazone from human recombinant PPARgamma LBD expressed in insect cells measured after 24 hrs by scintillation counting analysis

$$$$
CHEMBL202246
Actelion Java MolfileCreator 2.0

  0  0  0  0  0  0              0 V3000
M  V30 BEGIN CTAB
M  V30 COUNTS 39 43 0 0 0
M  V30 BEGIN ATOM
M  V30 1 O 9.5262 -2.9999 0.0 0
M  V30 2 C 8.6602 -3.5 0.0 0
M  V30 3 C 7.7942 -2.9999 0.0 0
M  V30 4 C 8.6602 -4.5 0.0 0
M  V30 5 C 7.7942 -1.9999 0.0 0
M  V30 6 C 6.9282 -3.4999 0.0 0
M  V30 7 C 7.7942 -4.9999 0.0 0
M  V30 8 C 9.5262 -5.0 0.0 0
M  V30 9 C 6.9282 -1.4999 0.0 0
M  V30 10 C 6.0621 -2.9999 0.0 0
M  V30 11 C 7.7942 -5.9999 0.0 0
M  V30 12 C 9.5262 -6.0 0.0 0
M  V30 13 C 6.0621 -1.9999 0.0 0
M  V30 14 C 6.9282 -0.5 0.0 0
M  V30 15 C 8.6602 -6.4999 0.0 0
M  V30 16 C 5.1961 -1.4999 0.0 0
M  V30 17 C 6.0621 0.0 0.0 0
M  V30 18 C 5.1961 -0.5 0.0 0
M  V30 19 C 4.3301 -1.9999 0.0 0
M  V30 20 O 4.3301 0.0 0.0 0
M  V30 21 C 3.4641 -1.4999 0.0 0
M  V30 22 C 3.4641 -0.5 0.0 0
M  V30 23 C 2.598 -1.9999 0.0 0
M  V30 24 C 2.598 0.0 0.0 0
M  V30 25 C 1.732 -0.5 0.0 0
M  V30 26 O 0.866 0.0 0.0 0
M  V30 27 C 0.0 -0.5 0.0 0
M  V30 28 C -0.866 0.0 0.0 0
M  V30 29 C 0.0 -1.5 0.0 0
M  V30 30 C -1.732 -0.4999 0.0 0
M  V30 31 C -0.866 -1.9999 0.0 0
M  V30 32 N -2.6831 -0.1909 0.0 0
M  V30 33 C -1.732 -1.4999 0.0 0
M  V30 34 C -3.2708 -0.9999 0.0 0
M  V30 35 C -2.9921 0.76 0.0 0
M  V30 36 C -2.6831 -1.809 0.0 0
M  V30 37 C -2.3229 1.5032 0.0 0
M  V30 38 O -1.3448 1.2953 0.0 0
M  V30 39 O -2.632 2.4542 0.0 0
M  V30 END ATOM
M  V30 BEGIN BOND
M  V30 1 2 1 2
M  V30 2 1 2 3
M  V30 3 1 2 4
M  V30 4 2 3 5
M  V30 5 1 3 6
M  V30 6 2 4 7
M  V30 7 1 4 8
M  V30 8 1 5 9
M  V30 9 2 6 10
M  V30 10 1 7 11
M  V30 11 2 8 12
M  V30 12 1 9 13
M  V30 13 2 9 14
M  V30 14 2 11 15
M  V30 15 2 13 16
M  V30 16 1 14 17
M  V30 17 1 16 18
M  V30 18 1 16 19
M  V30 19 1 18 20
M  V30 20 1 19 21
M  V30 21 1 20 22
M  V30 22 1 21 23
M  V30 23 1 22 24
M  V30 24 1 24 25
M  V30 25 1 25 26
M  V30 26 1 26 27
M  V30 27 2 27 28
M  V30 28 1 27 29
M  V30 29 1 28 30
M  V30 30 2 29 31
M  V30 31 1 30 32
M  V30 32 2 30 33
M  V30 33 1 32 34
M  V30 34 1 32 35
M  V30 35 1 33 36
M  V30 36 1 35 37
M  V30 37 2 37 38
M  V30 38 1 37 39
M  V30 39 1 10 13
M  V30 40 1 12 15
M  V30 41 2 17 18
M  V30 42 1 31 33
M  V30 43 2 34 36
M  V30 END BOND
M  V30 END CTAB
M  END
>  <Molecule ChEMBL ID>
CHEMBL202246

>  <Smiles>
CCCc1c(OCCCOc2ccc3ccn(CC(=O)O)c3c2)ccc2cc(C(=O)c3ccccc3)ccc12

>  <IC50_nM>
2023.02

>  <Assay Description>
Agonist activity at PPARgamma

$$$$
CHEMBL202246
Actelion Java MolfileCreator 2.0

  0  0  0  0  0  0              0 V3000
M  V30 BEGIN CTAB
M  V30 COUNTS 39 43 0 0 0
M  V30 BEGIN ATOM
M  V30 1 O 9.5262 -2.9999 0.0 0
M  V30 2 C 8.6602 -3.5 0.0 0
M  V30 3 C 7.7942 -2.9999 0.0 0
M  V30 4 C 8.6602 -4.5 0.0 0
M  V30 5 C 7.7942 -1.9999 0.0 0
M  V30 6 C 6.9282 -3.4999 0.0 0
M  V30 7 C 7.7942 -4.9999 0.0 0
M  V30 8 C 9.5262 -5.0 0.0 0
M  V30 9 C 6.9282 -1.4999 0.0 0
M  V30 10 C 6.0621 -2.9999 0.0 0
M  V30 11 C 7.7942 -5.9999 0.0 0
M  V30 12 C 9.5262 -6.0 0.0 0
M  V30 13 C 6.0621 -1.9999 0.0 0
M  V30 14 C 6.9282 -0.5 0.0 0
M  V30 15 C 8.6602 -6.4999 0.0 0
M  V30 16 C 5.1961 -1.4999 0.0 0
M  V30 17 C 6.0621 0.0 0.0 0
M  V30 18 C 5.1961 -0.5 0.0 0
M  V30 19 C 4.3301 -1.9999 0.0 0
M  V30 20 O 4.3301 0.0 0.0 0
M  V30 21 C 3.4641 -1.4999 0.0 0
M  V30 22 C 3.4641 -0.5 0.0 0
M  V30 23 C 2.598 -1.9999 0.0 0
M  V30 24 C 2.598 0.0 0.0 0
M  V30 25 C 1.732 -0.5 0.0 0
M  V30 26 O 0.866 0.0 0.0 0
M  V30 27 C 0.0 -0.5 0.0 0
M  V30 28 C -0.866 0.0 0.0 0
M  V30 29 C 0.0 -1.5 0.0 0
M  V30 30 C -1.732 -0.4999 0.0 0
M  V30 31 C -0.866 -1.9999 0.0 0
M  V30 32 N -2.6831 -0.1909 0.0 0
M  V30 33 C -1.732 -1.4999 0.0 0
M  V30 34 C -3.2708 -0.9999 0.0 0
M  V30 35 C -2.9921 0.76 0.0 0
M  V30 36 C -2.6831 -1.809 0.0 0
M  V30 37 C -2.3229 1.5032 0.0 0
M  V30 38 O -1.3448 1.2953 0.0 0
M  V30 39 O -2.632 2.4542 0.0 0
M  V30 END ATOM
M  V30 BEGIN BOND
M  V30 1 2 1 2
M  V30 2 1 2 3
M  V30 3 1 2 4
M  V30 4 2 3 5
M  V30 5 1 3 6
M  V30 6 2 4 7
M  V30 7 1 4 8
M  V30 8 1 5 9
M  V30 9 2 6 10
M  V30 10 1 7 11
M  V30 11 2 8 12
M  V30 12 1 9 13
M  V30 13 2 9 14
M  V30 14 2 11 15
M  V30 15 2 13 16
M  V30 16 1 14 17
M  V30 17 1 16 18
M  V30 18 1 16 19
M  V30 19 1 18 20
M  V30 20 1 19 21
M  V30 21 1 20 22
M  V30 22 1 21 23
M  V30 23 1 22 24
M  V30 24 1 24 25
M  V30 25 1 25 26
M  V30 26 1 26 27
M  V30 27 2 27 28
M  V30 28 1 27 29
M  V30 29 1 28 30
M  V30 30 2 29 31
M  V30 31 1 30 32
M  V30 32 2 30 33
M  V30 33 1 32 34
M  V30 34 1 32 35
M  V30 35 1 33 36
M  V30 36 1 35 37
M  V30 37 2 37 38
M  V30 38 1 37 39
M  V30 39 1 10 13
M  V30 40 1 12 15
M  V30 41 2 17 18
M  V30 42 1 31 33
M  V30 43 2 34 36
M  V30 END BOND
M  V30 END CTAB
M  END
>  <Molecule ChEMBL ID>
CHEMBL202246

>  <Smiles>
CCCc1c(OCCCOc2ccc3ccn(CC(=O)O)c3c2)ccc2cc(C(=O)c3ccccc3)ccc12

>  <IC50_nM>
2024

>  <Assay Description>
Displacement of [3H]rosiglitazone from human PPAR gamma by SPA assay

$$$$
CHEMBL3398448
Actelion Java MolfileCreator 2.0

  0  0  0  0  0  0              0 V3000
M  V30 BEGIN CTAB
M  V30 COUNTS 36 40 0 0 0
M  V30 BEGIN ATOM
M  V30 1 O 8.5653 -3.9478 0.0 0
M  V30 2 C 7.8222 -3.2787 0.0 0
M  V30 3 O 8.0301 -2.3006 0.0 0
M  V30 4 C 6.8711 -3.5877 0.0 0 CFG=2
M  V30 5 C 6.0621 -3.0 0.0 0 CFG=1
M  V30 6 C 6.5621 -4.5388 0.0 0
M  V30 7 C 5.2531 -3.5877 0.0 0
M  V30 8 C 6.0621 -2.0 0.0 0
M  V30 9 N 5.5621 -4.5388 0.0 0
M  V30 10 C 5.1961 -1.4999 0.0 0
M  V30 11 C 4.9743 -5.3478 0.0 0
M  V30 12 C 5.1961 -0.5 0.0 0
M  V30 13 C 4.3301 -1.9999 0.0 0
M  V30 14 N 3.9798 -5.2433 0.0 0
M  V30 15 N 5.3811 -6.2614 0.0 0
M  V30 16 C 4.3301 0.0 0.0 0
M  V30 17 C 3.4641 -1.5 0.0 0
M  V30 18 C 3.392 -6.0523 0.0 0
M  V30 19 C 4.7933 -7.0704 0.0 0
M  V30 20 C 3.4641 -0.5 0.0 0
M  V30 21 C 3.7988 -6.9658 0.0 0
M  V30 22 O 2.598 0.0 0.0 0
M  V30 23 C 1.732 -0.5 0.0 0
M  V30 24 C 0.866 0.0 0.0 0
M  V30 25 C 0.0 -0.5 0.0 0
M  V30 26 N -0.9135 -0.0932 0.0 0
M  V30 27 C -0.1045 -1.4945 0.0 0
M  V30 28 C -1.5826 -0.8364 0.0 0
M  V30 29 O -1.0826 -1.7024 0.0 0
M  V30 30 C 0.6386 -2.1636 0.0 0
M  V30 31 C -2.5771 -0.7318 0.0 0
M  V30 32 C -2.9839 0.1816 0.0 0
M  V30 33 C -3.1649 -1.5408 0.0 0
M  V30 34 C -3.9784 0.2861 0.0 0
M  V30 35 C -4.1595 -1.4363 0.0 0
M  V30 36 C -4.5662 -0.5228 0.0 0
M  V30 END ATOM
M  V30 BEGIN BOND
M  V30 1 2 1 2
M  V30 2 1 2 3
M  V30 3 1 4 2 CFG=1
M  V30 4 1 4 5
M  V30 5 1 4 6
M  V30 6 1 5 7
M  V30 7 1 5 8 CFG=1
M  V30 8 1 6 9
M  V30 9 1 8 10
M  V30 10 1 9 11
M  V30 11 2 10 12
M  V30 12 1 10 13
M  V30 13 2 11 14
M  V30 14 1 11 15
M  V30 15 1 12 16
M  V30 16 2 13 17
M  V30 17 1 14 18
M  V30 18 2 15 19
M  V30 19 2 16 20
M  V30 20 2 18 21
M  V30 21 1 20 22
M  V30 22 1 22 23
M  V30 23 1 23 24
M  V30 24 1 24 25
M  V30 25 1 25 26
M  V30 26 2 25 27
M  V30 27 2 26 28
M  V30 28 1 27 29
M  V30 29 1 27 30
M  V30 30 1 28 31
M  V30 31 2 31 32
M  V30 32 1 31 33
M  V30 33 1 32 34
M  V30 34 2 33 35
M  V30 35 2 34 36
M  V30 36 1 7 9
M  V30 37 1 17 20
M  V30 38 1 19 21
M  V30 39 1 28 29
M  V30 40 1 35 36
M  V30 END BOND
M  V30 BEGIN COLLECTION
M  V30 MDLV30/STEABS ATOMS=(2 4 5)
M  V30 END COLLECTION
M  V30 END CTAB
M  END
>  <Molecule ChEMBL ID>
CHEMBL3398448

>  <Smiles>
Cc1oc(-c2ccccc2)nc1CCOc1ccc(C[C@@H]2CN(c3ncccn3)C[C@@H]2C(=O)O)cc1

>  <IC50_nM>
2040

>  <Assay Description>
Binding affinity to PPARgamma (unknown origin) using fluorescein-tagged dual PPARalpha/gamma activator by homogeneous fluorescence polarization binding assay

$$$$
CHEMBL253952
Actelion Java MolfileCreator 2.0

  0  0  0  0  0  0              0 V3000
M  V30 BEGIN CTAB
M  V30 COUNTS 39 42 0 0 0
M  V30 BEGIN ATOM
M  V30 1 O 3.4641 -1.5 0.0 0
M  V30 2 C 3.4641 -0.5 0.0 0
M  V30 3 O 4.3301 0.0 0.0 0
M  V30 4 N 2.598 0.0 0.0 0
M  V30 5 C 5.1961 -0.5 0.0 0
M  V30 6 C 2.598 1.0 0.0 0
M  V30 7 C 1.732 -0.5 0.0 0
M  V30 8 C 5.1961 -1.5 0.0 0
M  V30 9 C 6.0621 0.0 0.0 0
M  V30 10 C 1.732 1.5 0.0 0
M  V30 11 C 1.732 -1.5 0.0 0
M  V30 12 C 6.0621 -2.0 0.0 0
M  V30 13 C 6.9282 -0.5 0.0 0
M  V30 14 C 1.732 2.5 0.0 0
M  V30 15 C 0.866 1.0 0.0 0
M  V30 16 O 2.598 -2.0 0.0 0
M  V30 17 O 0.866 -2.0 0.0 0
M  V30 18 C 6.9282 -1.5 0.0 0
M  V30 19 C 0.866 3.0 0.0 0
M  V30 20 C 0.0 1.5 0.0 0
M  V30 21 O 7.7942 -2.0 0.0 0
M  V30 22 C 0.0 2.5 0.0 0
M  V30 23 C 8.6602 -1.5 0.0 0
M  V30 24 O -0.866 3.0 0.0 0
M  V30 25 C -1.732 2.5 0.0 0
M  V30 26 C -2.598 3.0 0.0 0
M  V30 27 C -3.4641 2.5 0.0 0
M  V30 28 N -4.3776 2.9067 0.0 0
M  V30 29 C -3.5686 1.5054 0.0 0
M  V30 30 C -5.0467 2.1635 0.0 0
M  V30 31 O -4.5467 1.2975 0.0 0
M  V30 32 C -2.8254 0.8363 0.0 0
M  V30 33 C -6.0412 2.2681 0.0 0
M  V30 34 C -6.448 3.1816 0.0 0
M  V30 35 C -6.629 1.4591 0.0 0
M  V30 36 C -7.4425 3.2861 0.0 0
M  V30 37 C -7.6236 1.5636 0.0 0
M  V30 38 C -8.0303 2.4771 0.0 0
M  V30 39 O -9.0248 2.5817 0.0 0
M  V30 END ATOM
M  V30 BEGIN BOND
M  V30 1 2 1 2
M  V30 2 1 2 3
M  V30 3 1 2 4
M  V30 4 1 3 5
M  V30 5 1 4 6
M  V30 6 1 4 7
M  V30 7 2 5 8
M  V30 8 1 5 9
M  V30 9 1 6 10
M  V30 10 1 7 11
M  V30 11 1 8 12
M  V30 12 2 9 13
M  V30 13 2 10 14
M  V30 14 1 10 15
M  V30 15 2 11 16
M  V30 16 1 11 17
M  V30 17 2 12 18
M  V30 18 1 14 19
M  V30 19 2 15 20
M  V30 20 1 18 21
M  V30 21 2 19 22
M  V30 22 1 21 23
M  V30 23 1 22 24
M  V30 24 1 24 25
M  V30 25 1 25 26
M  V30 26 1 26 27
M  V30 27 1 27 28
M  V30 28 2 27 29
M  V30 29 2 28 30
M  V30 30 1 29 31
M  V30 31 1 29 32
M  V30 32 1 30 33
M  V30 33 2 33 34
M  V30 34 1 33 35
M  V30 35 1 34 36
M  V30 36 2 35 37
M  V30 37 2 36 38
M  V30 38 1 38 39
M  V30 39 1 13 18
M  V30 40 1 20 22
M  V30 41 1 30 31
M  V30 42 1 37 38
M  V30 END BOND
M  V30 END CTAB
M  END
>  <Molecule ChEMBL ID>
CHEMBL253952

>  <Smiles>
COc1ccc(OC(=O)N(CC(=O)O)Cc2ccc(OCCc3nc(-c4ccc(O)cc4)oc3C)cc2)cc1

>  <IC50_nM>
2050

>  <Assay Description>
Binding affinity at PPAR gamma receptor

$$$$
CHEMBL201581
Actelion Java MolfileCreator 2.0

  0  0  0  0  0  0              0 V3000
M  V30 BEGIN CTAB
M  V30 COUNTS 33 36 0 0 0
M  V30 BEGIN ATOM
M  V30 1 F 7.7942 -6.0 0.0 0
M  V30 2 C 7.7942 -5.0 0.0 0
M  V30 3 C 8.6602 -4.5 0.0 0
M  V30 4 C 6.9282 -4.5 0.0 0
M  V30 5 C 8.6602 -3.5 0.0 0
M  V30 6 C 6.9282 -3.5 0.0 0
M  V30 7 C 7.7942 -3.0 0.0 0
M  V30 8 C 7.7942 -2.0 0.0 0
M  V30 9 O 8.6602 -1.5 0.0 0
M  V30 10 C 6.9282 -1.5 0.0 0
M  V30 11 C 6.9282 -0.5 0.0 0
M  V30 12 C 6.0621 -2.0 0.0 0
M  V30 13 C 6.0621 0.0 0.0 0
M  V30 14 C 5.1961 -1.5 0.0 0
M  V30 15 C 5.1961 -0.5 0.0 0
M  V30 16 O 4.3301 0.0 0.0 0
M  V30 17 C 3.4641 -0.5 0.0 0
M  V30 18 C 2.598 0.0 0.0 0
M  V30 19 C 1.732 -0.5 0.0 0
M  V30 20 O 0.866 0.0 0.0 0
M  V30 21 C 0.0 -0.5 0.0 0
M  V30 22 C -0.866 0.0 0.0 0
M  V30 23 C 0.0 -1.5 0.0 0
M  V30 24 C -1.732 -0.4999 0.0 0
M  V30 25 C -0.866 -1.9999 0.0 0
M  V30 26 N -2.6831 -0.1909 0.0 0
M  V30 27 C -1.732 -1.4999 0.0 0
M  V30 28 C -3.2708 -0.9999 0.0 0
M  V30 29 C -2.9921 0.76 0.0 0
M  V30 30 C -2.6831 -1.809 0.0 0
M  V30 31 C -2.3229 1.5032 0.0 0
M  V30 32 O -1.3448 1.2953 0.0 0
M  V30 33 O -2.632 2.4542 0.0 0
M  V30 END ATOM
M  V30 BEGIN BOND
M  V30 1 1 1 2
M  V30 2 2 2 3
M  V30 3 1 2 4
M  V30 4 1 3 5
M  V30 5 2 4 6
M  V30 6 2 5 7
M  V30 7 1 7 8
M  V30 8 2 8 9
M  V30 9 1 8 10
M  V30 10 2 10 11
M  V30 11 1 10 12
M  V30 12 1 11 13
M  V30 13 2 12 14
M  V30 14 2 13 15
M  V30 15 1 15 16
M  V30 16 1 16 17
M  V30 17 1 17 18
M  V30 18 1 18 19
M  V30 19 1 19 20
M  V30 20 1 20 21
M  V30 21 2 21 22
M  V30 22 1 21 23
M  V30 23 1 22 24
M  V30 24 2 23 25
M  V30 25 1 24 26
M  V30 26 2 24 27
M  V30 27 1 26 28
M  V30 28 1 26 29
M  V30 29 1 27 30
M  V30 30 1 29 31
M  V30 31 2 31 32
M  V30 32 1 31 33
M  V30 33 1 6 7
M  V30 34 1 14 15
M  V30 35 1 25 27
M  V30 36 2 28 30
M  V30 END BOND
M  V30 END CTAB
M  END
>  <Molecule ChEMBL ID>
CHEMBL201581

>  <Smiles>
O=C(O)Cn1ccc2ccc(OCCCOc3ccc(C(=O)c4ccc(F)cc4)cc3)cc21

>  <IC50_nM>
2070.14

>  <Assay Description>
Agonist activity at PPARgamma

$$$$
CHEMBL201581
Actelion Java MolfileCreator 2.0

  0  0  0  0  0  0              0 V3000
M  V30 BEGIN CTAB
M  V30 COUNTS 33 36 0 0 0
M  V30 BEGIN ATOM
M  V30 1 F 7.7942 -6.0 0.0 0
M  V30 2 C 7.7942 -5.0 0.0 0
M  V30 3 C 8.6602 -4.5 0.0 0
M  V30 4 C 6.9282 -4.5 0.0 0
M  V30 5 C 8.6602 -3.5 0.0 0
M  V30 6 C 6.9282 -3.5 0.0 0
M  V30 7 C 7.7942 -3.0 0.0 0
M  V30 8 C 7.7942 -2.0 0.0 0
M  V30 9 O 8.6602 -1.5 0.0 0
M  V30 10 C 6.9282 -1.5 0.0 0
M  V30 11 C 6.9282 -0.5 0.0 0
M  V30 12 C 6.0621 -2.0 0.0 0
M  V30 13 C 6.0621 0.0 0.0 0
M  V30 14 C 5.1961 -1.5 0.0 0
M  V30 15 C 5.1961 -0.5 0.0 0
M  V30 16 O 4.3301 0.0 0.0 0
M  V30 17 C 3.4641 -0.5 0.0 0
M  V30 18 C 2.598 0.0 0.0 0
M  V30 19 C 1.732 -0.5 0.0 0
M  V30 20 O 0.866 0.0 0.0 0
M  V30 21 C 0.0 -0.5 0.0 0
M  V30 22 C -0.866 0.0 0.0 0
M  V30 23 C 0.0 -1.5 0.0 0
M  V30 24 C -1.732 -0.4999 0.0 0
M  V30 25 C -0.866 -1.9999 0.0 0
M  V30 26 N -2.6831 -0.1909 0.0 0
M  V30 27 C -1.732 -1.4999 0.0 0
M  V30 28 C -3.2708 -0.9999 0.0 0
M  V30 29 C -2.9921 0.76 0.0 0
M  V30 30 C -2.6831 -1.809 0.0 0
M  V30 31 C -2.3229 1.5032 0.0 0
M  V30 32 O -1.3448 1.2953 0.0 0
M  V30 33 O -2.632 2.4542 0.0 0
M  V30 END ATOM
M  V30 BEGIN BOND
M  V30 1 1 1 2
M  V30 2 2 2 3
M  V30 3 1 2 4
M  V30 4 1 3 5
M  V30 5 2 4 6
M  V30 6 2 5 7
M  V30 7 1 7 8
M  V30 8 2 8 9
M  V30 9 1 8 10
M  V30 10 2 10 11
M  V30 11 1 10 12
M  V30 12 1 11 13
M  V30 13 2 12 14
M  V30 14 2 13 15
M  V30 15 1 15 16
M  V30 16 1 16 17
M  V30 17 1 17 18
M  V30 18 1 18 19
M  V30 19 1 19 20
M  V30 20 1 20 21
M  V30 21 2 21 22
M  V30 22 1 21 23
M  V30 23 1 22 24
M  V30 24 2 23 25
M  V30 25 1 24 26
M  V30 26 2 24 27
M  V30 27 1 26 28
M  V30 28 1 26 29
M  V30 29 1 27 30
M  V30 30 1 29 31
M  V30 31 2 31 32
M  V30 32 1 31 33
M  V30 33 1 6 7
M  V30 34 1 14 15
M  V30 35 1 25 27
M  V30 36 2 28 30
M  V30 END BOND
M  V30 END CTAB
M  END
>  <Molecule ChEMBL ID>
CHEMBL201581

>  <Smiles>
O=C(O)Cn1ccc2ccc(OCCCOc3ccc(C(=O)c4ccc(F)cc4)cc3)cc21

>  <IC50_nM>
2072

>  <Assay Description>
Displacement of [3H]rosiglitazone from human PPAR gamma by SPA assay

$$$$
CHEMBL471830
Actelion Java MolfileCreator 2.0

  0  0  0  0  0  0              0 V3000
M  V30 BEGIN CTAB
M  V30 COUNTS 20 21 0 0 0
M  V30 BEGIN ATOM
M  V30 1 S 3.8971 0.0 0.0 0
M  V30 2 O 4.6471 1.299 0.0 0
M  V30 3 O 3.1471 1.299 0.0 0
M  V30 4 O 5.1961 -0.75 0.0 0
M  V30 5 C 2.598 -0.75 0.0 0
M  V30 6 C 6.4952 0.0 0.0 0
M  V30 7 C 1.299 0.0 0.0 0
M  V30 8 C 7.7942 -0.75 0.0 0
M  V30 9 C 6.4952 1.5 0.0 0
M  V30 10 C 0.0 -0.75 0.0 0
M  V30 11 C 9.0932 0.0 0.0 0
M  V30 12 C 7.7942 2.25 0.0 0
M  V30 13 C -1.299 0.0 0.0 0
M  V30 14 C 0.0 -2.25 0.0 0
M  V30 15 C 9.0932 1.5 0.0 0
M  V30 16 C -2.598 -0.75 0.0 0
M  V30 17 C -1.299 -3.0 0.0 0
M  V30 18 C 10.3923 2.25 0.0 0
M  V30 19 C -2.598 -2.25 0.0 0
M  V30 20 O 10.3923 3.75 0.0 0
M  V30 END ATOM
M  V30 BEGIN BOND
M  V30 1 2 1 2
M  V30 2 2 1 3
M  V30 3 1 1 4
M  V30 4 1 1 5
M  V30 5 1 4 6
M  V30 6 2 5 7
M  V30 7 2 6 8
M  V30 8 1 6 9
M  V30 9 1 7 10
M  V30 10 1 8 11
M  V30 11 2 9 12
M  V30 12 2 10 13
M  V30 13 1 10 14
M  V30 14 2 11 15
M  V30 15 1 13 16
M  V30 16 2 14 17
M  V30 17 1 15 18
M  V30 18 2 16 19
M  V30 19 2 18 20
M  V30 20 1 12 15
M  V30 21 1 17 19
M  V30 END BOND
M  V30 END CTAB
M  END
>  <Molecule ChEMBL ID>
CHEMBL471830

>  <Smiles>
O=Cc1ccc(OS(=O)(=O)/C=C/c2ccccc2)cc1

>  <IC50_nM>
2098

>  <Assay Description>
Displacement of [3H]BRL49653 from PPARgamma ligand binding domain by scintillation proximity assay

$$$$
CHEMBL3598142
Actelion Java MolfileCreator 2.0

  0  0  0  0  0  0              0 V3000
M  V30 BEGIN CTAB
M  V30 COUNTS 31 34 0 0 0
M  V30 BEGIN ATOM
M  V30 1 Cl -0.866 0.9999 0.0 0
M  V30 2 C 0.0 1.4999 0.0 0
M  V30 3 C 0.866 0.9999 0.0 0
M  V30 4 C 0.0 2.4999 0.0 0
M  V30 5 C 1.732 1.5 0.0 0
M  V30 6 C 0.866 0.0 0.0 0
M  V30 7 C 0.866 3.0 0.0 0
M  V30 8 C 1.732 2.4999 0.0 0
M  V30 9 C 2.598 1.0 0.0 0
M  V30 10 O 1.732 -0.5 0.0 0
M  V30 11 C 0.0 -0.5 0.0 0
M  V30 12 F 3.098 1.866 0.0 0
M  V30 13 F 3.4641 0.5 0.0 0
M  V30 14 F 2.098 0.1339 0.0 0
M  V30 15 N -0.9135 -0.0932 0.0 0
M  V30 16 N -0.1045 -1.4945 0.0 0
M  V30 17 C -1.5826 -0.8364 0.0 0
M  V30 18 C -1.0826 -1.7024 0.0 0
M  V30 19 C 0.5646 -2.2376 0.0 0
M  V30 20 C -2.5771 -0.7318 0.0 0
M  V30 21 C -1.3916 -2.6534 0.0 0
M  V30 22 C 0.2555 -3.1887 0.0 0
M  V30 23 C -2.9839 0.1816 0.0 0
M  V30 24 C -3.1649 -1.5408 0.0 0
M  V30 25 C -0.7225 -3.3966 0.0 0
M  V30 26 C -3.9784 0.2861 0.0 0
M  V30 27 C -4.1595 -1.4363 0.0 0
M  V30 28 C -4.5662 -0.5228 0.0 0
M  V30 29 C -5.5607 -0.4182 0.0 0
M  V30 30 O -5.9675 0.4952 0.0 0
M  V30 31 O -6.1485 -1.2273 0.0 0
M  V30 END ATOM
M  V30 BEGIN BOND
M  V30 1 1 1 2
M  V30 2 2 2 3
M  V30 3 1 2 4
M  V30 4 1 3 5
M  V30 5 1 3 6
M  V30 6 2 4 7
M  V30 7 2 5 8
M  V30 8 1 5 9
M  V30 9 2 6 10
M  V30 10 1 6 11
M  V30 11 1 9 12
M  V30 12 1 9 13
M  V30 13 1 9 14
M  V30 14 2 11 15
M  V30 15 1 11 16
M  V30 16 1 15 17
M  V30 17 1 16 18
M  V30 18 1 16 19
M  V30 19 1 17 20
M  V30 20 1 18 21
M  V30 21 1 19 22
M  V30 22 2 20 23
M  V30 23 1 20 24
M  V30 24 1 21 25
M  V30 25 1 23 26
M  V30 26 2 24 27
M  V30 27 2 26 28
M  V30 28 1 28 29
M  V30 29 2 29 30
M  V30 30 1 29 31
M  V30 31 1 7 8
M  V30 32 2 17 18
M  V30 33 1 22 25
M  V30 34 1 27 28
M  V30 END BOND
M  V30 END CTAB
M  END
>  <Molecule ChEMBL ID>
CHEMBL3598142

>  <Smiles>
O=C(O)c1ccc(-c2nc(C(=O)c3c(Cl)cccc3C(F)(F)F)n3c2CCCC3)cc1

>  <IC50_nM>
2100

>  <Assay Description>
Displacement of fluormone PPARgamma green from GST-tagged human PPARgamma-LBD after 2 hrs by fluorescence polarization assay

$$$$
CHEMBL4876787
Actelion Java MolfileCreator 2.0

  0  0  0  0  0  0              0 V3000
M  V30 BEGIN CTAB
M  V30 COUNTS 33 36 0 0 0
M  V30 BEGIN ATOM
M  V30 1 O 10.3923 -2.25 0.0 0
M  V30 2 C 10.3923 -0.75 0.0 0
M  V30 3 N 11.6913 0.0 0.0 0
M  V30 4 C 9.0932 0.0 0.0 0
M  V30 5 N 12.9903 -0.75 0.0 0
M  V30 6 C 7.7942 -0.75 0.0 0
M  V30 7 C 14.2894 0.0 0.0 0
M  V30 8 C 6.4951 0.0 0.0 0
M  V30 9 C 15.5884 -0.75 0.0 0
M  V30 10 C 5.1961 -0.75 0.0 0
M  V30 11 C 15.5884 -2.25 0.0 0
M  V30 12 C 16.8874 0.0 0.0 0
M  V30 13 O 5.1961 -2.25 0.0 0
M  V30 14 N 3.8971 0.0 0.0 0
M  V30 15 C 16.8874 -3.0 0.0 0
M  V30 16 C 14.2894 -2.9999 0.0 0
M  V30 17 C 18.1865 -0.75 0.0 0
M  V30 18 N 2.598 -0.75 0.0 0
M  V30 19 C 18.1865 -2.25 0.0 0
M  V30 20 C 16.8874 -4.5 0.0 0
M  V30 21 C 14.2894 -4.5 0.0 0
M  V30 22 C 1.299 0.0 0.0 0
M  V30 23 C 15.5884 -5.25 0.0 0
M  V30 24 C 0.0 -0.75 0.0 0
M  V30 25 C -1.299 0.0 0.0 0
M  V30 26 C 0.0 -2.25 0.0 0
M  V30 27 C -2.598 -0.7499 0.0 0
M  V30 28 C -1.299 -2.9999 0.0 0
M  V30 29 C -2.598 -2.2499 0.0 0
M  V30 30 C -3.8971 0.0 0.0 0
M  V30 31 C -3.8971 -2.9999 0.0 0
M  V30 32 C -5.1961 -0.7499 0.0 0
M  V30 33 C -5.1961 -2.2499 0.0 0
M  V30 END ATOM
M  V30 BEGIN BOND
M  V30 1 2 1 2
M  V30 2 1 2 3
M  V30 3 1 2 4
M  V30 4 1 3 5
M  V30 5 1 4 6
M  V30 6 2 5 7
M  V30 7 1 6 8
M  V30 8 1 7 9
M  V30 9 1 8 10
M  V30 10 1 9 11
M  V30 11 2 9 12
M  V30 12 2 10 13
M  V30 13 1 10 14
M  V30 14 1 11 15
M  V30 15 2 11 16
M  V30 16 1 12 17
M  V30 17 1 14 18
M  V30 18 1 15 19
M  V30 19 2 15 20
M  V30 20 1 16 21
M  V30 21 2 18 22
M  V30 22 1 20 23
M  V30 23 1 22 24
M  V30 24 2 24 25
M  V30 25 1 24 26
M  V30 26 1 25 27
M  V30 27 2 26 28
M  V30 28 1 27 29
M  V30 29 2 27 30
M  V30 30 2 29 31
M  V30 31 1 30 32
M  V30 32 1 31 33
M  V30 33 2 17 19
M  V30 34 2 21 23
M  V30 35 1 28 29
M  V30 36 2 32 33
M  V30 END BOND
M  V30 END CTAB
M  END
>  <Molecule ChEMBL ID>
CHEMBL4876787

>  <Smiles>
O=C(CCCC(=O)N/N=C/c1cccc2ccccc12)N/N=C/c1ccc2ccccc2c1

>  <IC50_nM>
2100

>  <Assay Description>
Antagonist activity at PPARgamma (unknown origin) expressed in human LNCaP cells assessed as suppression of pioglitazone-induced PPAR response element driven firefly luciferase activity measured after 24 hrs by dual luciferase reporter assay

$$$$
CHEMBL181835
Actelion Java MolfileCreator 2.0

  0  0  0  0  0  0              0 V3000
M  V30 BEGIN CTAB
M  V30 COUNTS 34 37 0 0 0
M  V30 BEGIN ATOM
M  V30 1 Cl 1.4944 -7.3946 0.0 0
M  V30 2 C 2.9862 -7.5514 0.0 0
M  V30 3 C 3.5963 -8.9217 0.0 0
M  V30 4 C 3.8679 -6.3378 0.0 0
M  V30 5 C 5.0881 -9.0785 0.0 0
M  V30 6 C 5.3597 -6.4946 0.0 0
M  V30 7 C 5.9698 -7.8649 0.0 0
M  V30 8 C 7.4615 -8.0217 0.0 0
M  V30 9 O 8.0716 -9.3921 0.0 0
M  V30 10 N 8.3432 -6.8082 0.0 0
M  V30 11 C 9.8432 -6.8082 0.0 0
M  V30 12 C 7.8797 -5.3816 0.0 0
M  V30 13 C 10.3067 -5.3816 0.0 0
M  V30 14 C 10.8469 -7.9229 0.0 0
M  V30 15 C 9.0932 -4.5 0.0 0
M  V30 16 C 6.4531 -4.9181 0.0 0
M  V30 17 C 11.774 -5.0698 0.0 0
M  V30 18 C 12.3141 -7.6111 0.0 0
M  V30 19 C 9.0932 -3.0 0.0 0
M  V30 20 C 12.7777 -6.1845 0.0 0
M  V30 21 C 7.7942 -2.25 0.0 0
M  V30 22 O 14.2449 -5.8726 0.0 0
M  V30 23 C 7.7942 -0.75 0.0 0
M  V30 24 C 6.4951 -2.9999 0.0 0
M  V30 25 C 14.7084 -4.446 0.0 0
M  V30 26 C 6.4951 0.0 0.0 0
M  V30 27 C 5.1961 -2.25 0.0 0
M  V30 28 C 5.1961 -0.75 0.0 0
M  V30 29 O 3.8971 0.0 0.0 0
M  V30 30 C 2.598 -0.75 0.0 0 CFG=2
M  V30 31 C 1.299 0.0 0.0 0
M  V30 32 C 2.598 -2.25 0.0 0
M  V30 33 O 1.299 1.5 0.0 0
M  V30 34 O 0.0 -0.75 0.0 0
M  V30 END ATOM
M  V30 BEGIN BOND
M  V30 1 1 1 2
M  V30 2 2 2 3
M  V30 3 1 2 4
M  V30 4 1 3 5
M  V30 5 2 4 6
M  V30 6 2 5 7
M  V30 7 1 7 8
M  V30 8 2 8 9
M  V30 9 1 8 10
M  V30 10 1 10 11
M  V30 11 1 10 12
M  V30 12 2 11 13
M  V30 13 1 11 14
M  V30 14 2 12 15
M  V30 15 1 12 16
M  V30 16 1 13 17
M  V30 17 2 14 18
M  V30 18 1 15 19
M  V30 19 2 17 20
M  V30 20 1 19 21
M  V30 21 1 20 22
M  V30 22 2 21 23
M  V30 23 1 21 24
M  V30 24 1 22 25
M  V30 25 1 23 26
M  V30 26 2 24 27
M  V30 27 2 26 28
M  V30 28 1 28 29
M  V30 29 1 29 30
M  V30 30 1 30 31
M  V30 31 1 30 32 CFG=1
M  V30 32 2 31 33
M  V30 33 1 31 34
M  V30 34 1 6 7
M  V30 35 1 13 15
M  V30 36 1 18 20
M  V30 37 1 27 28
M  V30 END BOND
M  V30 BEGIN COLLECTION
M  V30 MDLV30/STERAC1 ATOMS=(1 30)
M  V30 END COLLECTION
M  V30 END CTAB
M  END
>  <Molecule ChEMBL ID>
CHEMBL181835

>  <Smiles>
COc1ccc2c(c1)c(Cc1ccc(OC(C)C(=O)O)cc1)c(C)n2C(=O)c1ccc(Cl)cc1

>  <IC50_nM>
2140

>  <Assay Description>
In vitro inhibition of human Peroxisome proliferator activated receptor gamma

$$$$
CHEMBL514007
Actelion Java MolfileCreator 2.0

  0  0  0  0  0  0              0 V3000
M  V30 BEGIN CTAB
M  V30 COUNTS 36 40 0 0 0
M  V30 BEGIN ATOM
M  V30 1 O 8.5653 -3.9478 0.0 0
M  V30 2 C 7.8222 -3.2787 0.0 0
M  V30 3 O 8.0301 -2.3006 0.0 0
M  V30 4 C 6.8711 -3.5877 0.0 0
M  V30 5 C 6.0621 -3.0 0.0 0
M  V30 6 C 6.5621 -4.5388 0.0 0
M  V30 7 N 5.2531 -3.5877 0.0 0
M  V30 8 C 6.0621 -2.0 0.0 0
M  V30 9 N 5.5621 -4.5388 0.0 0
M  V30 10 C 5.1961 -1.4999 0.0 0
M  V30 11 C 4.9743 -5.3478 0.0 0
M  V30 12 C 5.1961 -0.5 0.0 0
M  V30 13 C 4.3301 -1.9999 0.0 0
M  V30 14 C 3.9798 -5.2433 0.0 0
M  V30 15 C 5.3811 -6.2614 0.0 0
M  V30 16 C 4.3301 0.0 0.0 0
M  V30 17 C 3.4641 -1.5 0.0 0
M  V30 18 C 3.392 -6.0523 0.0 0
M  V30 19 C 4.7933 -7.0704 0.0 0
M  V30 20 C 3.4641 -0.5 0.0 0
M  V30 21 C 3.7988 -6.9658 0.0 0
M  V30 22 O 2.598 0.0 0.0 0
M  V30 23 C 1.732 -0.5 0.0 0
M  V30 24 C 0.866 0.0 0.0 0
M  V30 25 C 0.0 -0.5 0.0 0
M  V30 26 N -0.9135 -0.0932 0.0 0
M  V30 27 C -0.1045 -1.4945 0.0 0
M  V30 28 C -1.5826 -0.8364 0.0 0
M  V30 29 O -1.0826 -1.7024 0.0 0
M  V30 30 C 0.6386 -2.1636 0.0 0
M  V30 31 C -2.5771 -0.7318 0.0 0
M  V30 32 C -2.9839 0.1816 0.0 0
M  V30 33 C -3.1649 -1.5408 0.0 0
M  V30 34 C -3.9784 0.2861 0.0 0
M  V30 35 C -4.1595 -1.4363 0.0 0
M  V30 36 C -4.5662 -0.5228 0.0 0
M  V30 END ATOM
M  V30 BEGIN BOND
M  V30 1 2 1 2
M  V30 2 1 2 3
M  V30 3 1 2 4
M  V30 4 1 4 5
M  V30 5 2 4 6
M  V30 6 2 5 7
M  V30 7 1 5 8
M  V30 8 1 6 9
M  V30 9 1 8 10
M  V30 10 1 9 11
M  V30 11 2 10 12
M  V30 12 1 10 13
M  V30 13 2 11 14
M  V30 14 1 11 15
M  V30 15 1 12 16
M  V30 16 2 13 17
M  V30 17 1 14 18
M  V30 18 2 15 19
M  V30 19 2 16 20
M  V30 20 2 18 21
M  V30 21 1 20 22
M  V30 22 1 22 23
M  V30 23 1 23 24
M  V30 24 1 24 25
M  V30 25 1 25 26
M  V30 26 2 25 27
M  V30 27 2 26 28
M  V30 28 1 27 29
M  V30 29 1 27 30
M  V30 30 1 28 31
M  V30 31 2 31 32
M  V30 32 1 31 33
M  V30 33 1 32 34
M  V30 34 2 33 35
M  V30 35 2 34 36
M  V30 36 1 7 9
M  V30 37 1 17 20
M  V30 38 1 19 21
M  V30 39 1 28 29
M  V30 40 1 35 36
M  V30 END BOND
M  V30 END CTAB
M  END
>  <Molecule ChEMBL ID>
CHEMBL514007

>  <Smiles>
Cc1oc(-c2ccccc2)nc1CCOc1ccc(Cc2nn(-c3ccccc3)cc2C(=O)O)cc1

>  <IC50_nM>
2160

>  <Assay Description>
Binding affinity to PPARgamma by fluorescence polarization assay

$$$$
CHEMBL1947139
Actelion Java MolfileCreator 2.0

  0  0  0  0  0  0              0 V3000
M  V30 BEGIN CTAB
M  V30 COUNTS 40 45 0 0 0
M  V30 BEGIN ATOM
M  V30 1 F 3.2907 2.3257 0.0 0
M  V30 2 C 4.2417 2.0167 0.0 0
M  V30 3 F 4.5507 2.9678 0.0 0
M  V30 4 F 5.1928 1.7077 0.0 0
M  V30 5 C 3.9327 1.0657 0.0 0
M  V30 6 C 2.9546 0.8577 0.0 0
M  V30 7 C 4.6018 0.3225 0.0 0
M  V30 8 C 2.6455 -0.0932 0.0 0
M  V30 9 C 4.2928 -0.6284 0.0 0
M  V30 10 N 1.732 -0.5 0.0 0
M  V30 11 C 3.3147 -0.8364 0.0 0
M  V30 12 C 1.8365 -1.4945 0.0 0
M  V30 13 C 0.866 0.0 0.0 0
M  V30 14 N 2.8147 -1.7024 0.0 0
M  V30 15 O 1.0934 -2.1636 0.0 0
M  V30 16 C 0.0 -0.5 0.0 0
M  V30 17 C 3.2214 -2.6159 0.0 0
M  V30 18 C -0.866 0.0 0.0 0
M  V30 19 C 0.0 -1.4999 0.0 0
M  V30 20 N 2.7214 -3.482 0.0 0
M  V30 21 C 4.1996 -2.8238 0.0 0
M  V30 22 C -1.732 -0.4999 0.0 0
M  V30 23 C -0.866 -1.9999 0.0 0
M  V30 24 O 3.3905 -4.2251 0.0 0
M  V30 25 C 4.3041 -3.8184 0.0 0
M  V30 26 C 5.0086 -2.2361 0.0 0
M  V30 27 C -1.732 -1.4999 0.0 0
M  V30 28 C 5.2176 -4.2251 0.0 0
M  V30 29 C 5.9221 -2.6428 0.0 0
M  V30 30 C -2.598 -1.9999 0.0 0 CFG=1
M  V30 31 C 6.0267 -3.6373 0.0 0
M  V30 32 O -3.5116 -1.5932 0.0 0
M  V30 33 C -2.7026 -2.9945 0.0 0
M  V30 34 C -1.7594 -2.5446 0.0 0
M  V30 35 O 6.9402 -4.0441 0.0 0
M  V30 36 C -4.1807 -2.3364 0.0 0
M  V30 37 O -1.9594 -3.6636 0.0 0
M  V30 38 N -3.6807 -3.2024 0.0 0
M  V30 39 C 7.7492 -3.4563 0.0 0
M  V30 40 O -5.1752 -2.2318 0.0 0
M  V30 END ATOM
M  V30 BEGIN BOND
M  V30 1 1 1 2
M  V30 2 1 2 3
M  V30 3 1 2 4
M  V30 4 1 2 5
M  V30 5 2 5 6
M  V30 6 1 5 7
M  V30 7 1 6 8
M  V30 8 2 7 9
M  V30 9 1 8 10
M  V30 10 2 8 11
M  V30 11 1 10 12
M  V30 12 1 10 13
M  V30 13 1 11 14
M  V30 14 2 12 15
M  V30 15 1 13 16
M  V30 16 1 14 17
M  V30 17 2 16 18
M  V30 18 1 16 19
M  V30 19 2 17 20
M  V30 20 1 17 21
M  V30 21 1 18 22
M  V30 22 2 19 23
M  V30 23 1 20 24
M  V30 24 2 21 25
M  V30 25 1 21 26
M  V30 26 2 22 27
M  V30 27 1 25 28
M  V30 28 2 26 29
M  V30 29 1 27 30
M  V30 30 2 28 31
M  V30 31 1 30 32
M  V30 32 1 30 33
M  V30 33 1 30 34 CFG=1
M  V30 34 1 31 35
M  V30 35 1 32 36
M  V30 36 2 33 37
M  V30 37 1 33 38
M  V30 38 1 35 39
M  V30 39 2 36 40
M  V30 40 1 9 11
M  V30 41 1 12 14
M  V30 42 1 23 27
M  V30 43 1 24 25
M  V30 44 1 29 31
M  V30 45 1 36 38
M  V30 END BOND
M  V30 BEGIN COLLECTION
M  V30 MDLV30/STEABS ATOMS=(1 30)
M  V30 END COLLECTION
M  V30 END CTAB
M  END
>  <Molecule ChEMBL ID>
CHEMBL1947139

>  <Smiles>
COc1ccc2c(-n3c(=O)n(Cc4ccc([C@@]5(C)OC(=O)NC5=O)cc4)c4cc(C(F)(F)F)ccc43)noc2c1

>  <IC50_nM>
2177

>  <Assay Description>
Binding affinity to human PPARgamma by scintillation proximity assay

$$$$
CHEMBL5282181
Actelion Java MolfileCreator 2.0

  0  0  0  0  0  0              0 V3000
M  V30 BEGIN CTAB
M  V30 COUNTS 28 30 0 0 0
M  V30 BEGIN ATOM
M  V30 1 Cl 6.0621 -1.9999 0.0 0
M  V30 2 C 5.1961 -1.4999 0.0 0
M  V30 3 C 5.1961 -0.5 0.0 0
M  V30 4 C 4.3301 -1.9999 0.0 0
M  V30 5 C 6.0621 0.0 0.0 0
M  V30 6 C 4.3301 0.0 0.0 0
M  V30 7 C 3.4641 -1.5 0.0 0
M  V30 8 O 6.0621 0.9999 0.0 0
M  V30 9 N 6.9282 -0.5 0.0 0
M  V30 10 C 3.4641 -0.5 0.0 0
M  V30 11 C 7.7942 0.0 0.0 0
M  V30 12 C 2.598 0.0 0.0 0
M  V30 13 C 8.6602 -0.5 0.0 0
M  V30 14 C 7.7942 0.9999 0.0 0
M  V30 15 O 2.598 1.0 0.0 0
M  V30 16 N 1.732 -0.5 0.0 0
M  V30 17 C 9.5262 0.0 0.0 0
M  V30 18 C 8.6602 1.4999 0.0 0
M  V30 19 C 0.866 0.0 0.0 0
M  V30 20 C 9.5262 0.9999 0.0 0
M  V30 21 C 0.0 -0.5 0.0 0
M  V30 22 C -0.866 0.0 0.0 0
M  V30 23 C 0.0 -1.4999 0.0 0
M  V30 24 O -0.866 1.0 0.0 0
M  V30 25 C -1.732 -0.4999 0.0 0
M  V30 26 C -0.866 -1.9999 0.0 0
M  V30 27 C -1.732 1.5 0.0 0
M  V30 28 C -1.732 -1.4999 0.0 0
M  V30 END ATOM
M  V30 BEGIN BOND
M  V30 1 1 1 2
M  V30 2 2 2 3
M  V30 3 1 2 4
M  V30 4 1 3 5
M  V30 5 1 3 6
M  V30 6 2 4 7
M  V30 7 2 5 8
M  V30 8 1 5 9
M  V30 9 2 6 10
M  V30 10 1 9 11
M  V30 11 1 10 12
M  V30 12 2 11 13
M  V30 13 1 11 14
M  V30 14 2 12 15
M  V30 15 1 12 16
M  V30 16 1 13 17
M  V30 17 2 14 18
M  V30 18 1 16 19
M  V30 19 2 17 20
M  V30 20 1 19 21
M  V30 21 2 21 22
M  V30 22 1 21 23
M  V30 23 1 22 24
M  V30 24 1 22 25
M  V30 25 2 23 26
M  V30 26 1 24 27
M  V30 27 2 25 28
M  V30 28 1 7 10
M  V30 29 1 18 20
M  V30 30 1 26 28
M  V30 END BOND
M  V30 END CTAB
M  END
>  <Molecule ChEMBL ID>
CHEMBL5282181

>  <Smiles>
COc1ccccc1CNC(=O)c1ccc(Cl)c(C(=O)Nc2ccccc2)c1

>  <IC50_nM>
2200

>  <Assay Description>
Inverse agonist activity at human PPARgamma in human RT112/84 transfected with NLuc-fused FABP4 assessed as reduction in PPARgamma transactivation incubated for 6 to 18 hrs by Nano-Glo luciferase assay

$$$$
CHEMBL476896
Actelion Java MolfileCreator 2.0

  0  0  0  0  0  0              0 V3000
M  V30 BEGIN CTAB
M  V30 COUNTS 38 42 0 0 0
M  V30 BEGIN ATOM
M  V30 1 O 3.4641 -0.5 0.0 0
M  V30 2 C 2.598 0.0 0.0 0
M  V30 3 O 2.598 1.0 0.0 0
M  V30 4 C 1.732 -0.5 0.0 0 CFG=1
M  V30 5 C 1.732 -1.5 0.0 0
M  V30 6 C 0.866 0.0 0.0 0
M  V30 7 C 0.866 -1.9999 0.0 0
M  V30 8 C 2.598 -2.0 0.0 0
M  V30 9 C 0.0 -0.5 0.0 0
M  V30 10 C 0.866 -2.9999 0.0 0
M  V30 11 C 2.598 -3.0 0.0 0
M  V30 12 C -0.866 0.0 0.0 0
M  V30 13 C 0.0 -1.4999 0.0 0
M  V30 14 C 1.732 -3.5 0.0 0
M  V30 15 C -1.732 -0.4999 0.0 0
M  V30 16 C -0.866 -1.9999 0.0 0
M  V30 17 C 1.732 -4.5 0.0 0
M  V30 18 C -1.732 -1.4999 0.0 0
M  V30 19 C 0.866 -4.9999 0.0 0
M  V30 20 C 2.598 -5.0 0.0 0
M  V30 21 C -2.598 -1.9999 0.0 0
M  V30 22 C 0.866 -5.9999 0.0 0
M  V30 23 C 2.598 -6.0 0.0 0
M  V30 24 C -3.4641 -2.4999 0.0 0
M  V30 25 C 1.732 -6.5 0.0 0
M  V30 26 C -4.3301 -2.9999 0.0 0
M  V30 27 C -4.3301 -3.9999 0.0 0
M  V30 28 N -5.1391 -4.5877 0.0 0
M  V30 29 C -3.5211 -4.5877 0.0 0
M  V30 30 C -4.8301 -5.5388 0.0 0
M  V30 31 O -3.8301 -5.5388 0.0 0
M  V30 32 C -2.57 -4.2787 0.0 0
M  V30 33 C -5.4179 -6.3478 0.0 0
M  V30 34 C -6.4124 -6.2433 0.0 0
M  V30 35 C -5.0111 -7.2614 0.0 0
M  V30 36 C -7.0002 -7.0523 0.0 0
M  V30 37 C -5.5989 -8.0704 0.0 0
M  V30 38 C -6.5934 -7.9658 0.0 0
M  V30 END ATOM
M  V30 BEGIN BOND
M  V30 1 2 1 2
M  V30 2 1 2 3
M  V30 3 1 2 4
M  V30 4 1 4 5
M  V30 5 1 4 6 CFG=1
M  V30 6 2 5 7
M  V30 7 1 5 8
M  V30 8 1 6 9
M  V30 9 1 7 10
M  V30 10 2 8 11
M  V30 11 2 9 12
M  V30 12 1 9 13
M  V30 13 2 10 14
M  V30 14 1 12 15
M  V30 15 2 13 16
M  V30 16 1 14 17
M  V30 17 2 15 18
M  V30 18 2 17 19
M  V30 19 1 17 20
M  V30 20 1 18 21
M  V30 21 1 19 22
M  V30 22 2 20 23
M  V30 23 3 21 24
M  V30 24 2 22 25
M  V30 25 1 24 26
M  V30 26 1 26 27
M  V30 27 1 27 28
M  V30 28 2 27 29
M  V30 29 2 28 30
M  V30 30 1 29 31
M  V30 31 1 29 32
M  V30 32 1 30 33
M  V30 33 2 33 34
M  V30 34 1 33 35
M  V30 35 1 34 36
M  V30 36 2 35 37
M  V30 37 2 36 38
M  V30 38 1 11 14
M  V30 39 1 16 18
M  V30 40 1 23 25
M  V30 41 1 30 31
M  V30 42 1 37 38
M  V30 END BOND
M  V30 BEGIN COLLECTION
M  V30 MDLV30/STERAC1 ATOMS=(1 4)
M  V30 END COLLECTION
M  V30 END CTAB
M  END
>  <Molecule ChEMBL ID>
CHEMBL476896

>  <Smiles>
Cc1oc(-c2ccccc2)nc1CC#Cc1ccc(CC(C(=O)O)c2ccc(-c3ccccc3)cc2)cc1

>  <IC50_nM>
2200

>  <Assay Description>
Displacement of [3H]darglitazone from human PPARgamma by scintillation proximity assay

$$$$
CHEMBL464982
Actelion Java MolfileCreator 2.0

  0  0  0  0  0  0              0 V3000
M  V30 BEGIN CTAB
M  V30 COUNTS 20 19 0 0 0
M  V30 BEGIN ATOM
M  V30 1 O 12.9903 -5.0 0.0 0
M  V30 2 C 12.1243 -4.5 0.0 0
M  V30 3 O 11.2583 -5.0 0.0 0
M  V30 4 C 12.1243 -3.5 0.0 0
M  V30 5 C 11.2583 -3.0 0.0 0
M  V30 6 C 11.2583 -2.0 0.0 0
M  V30 7 C 10.3923 -1.5 0.0 0
M  V30 8 C 10.3923 -0.5 0.0 0
M  V30 9 C 9.5262 0.0 0.0 0
M  V30 10 C 8.6602 -0.5 0.0 0
M  V30 11 C 7.7942 0.0 0.0 0
M  V30 12 C 6.9282 -0.5 0.0 0
M  V30 13 C 6.9282 -1.4999 0.0 0
M  V30 14 C 6.0621 -2.0 0.0 0
M  V30 15 C 6.0621 -3.0 0.0 0
M  V30 16 C 6.9282 -3.4999 0.0 0
M  V30 17 C 6.9282 -4.5 0.0 0
M  V30 18 C 7.7942 -4.9999 0.0 0
M  V30 19 C 7.7942 -5.9999 0.0 0
M  V30 20 C 8.6602 -6.4999 0.0 0
M  V30 END ATOM
M  V30 BEGIN BOND
M  V30 1 2 1 2
M  V30 2 1 2 3
M  V30 3 1 2 4
M  V30 4 1 4 5
M  V30 5 1 5 6
M  V30 6 1 6 7
M  V30 7 1 7 8
M  V30 8 2 8 9
M  V30 9 1 9 10
M  V30 10 1 10 11
M  V30 11 2 11 12
M  V30 12 1 12 13
M  V30 13 1 13 14
M  V30 14 2 14 15
M  V30 15 1 15 16
M  V30 16 1 16 17
M  V30 17 1 17 18
M  V30 18 1 18 19
M  V30 19 1 19 20
M  V30 END BOND
M  V30 END CTAB
M  END
>  <Molecule ChEMBL ID>
CHEMBL464982

>  <Smiles>
CCCCC/C=C\C/C=C\C/C=C\CCCCC(=O)O

>  <IC50_nM>
2200

>  <Assay Description>
Displacement of [3H]BRL49653 from Homo sapiens (human) PPARgamma receptor by scintillation proximity assay

$$$$
CHEMBL2048021
Actelion Java MolfileCreator 2.0

  0  0  0  0  0  0              0 V3000
M  V30 BEGIN CTAB
M  V30 COUNTS 27 30 0 0 0
M  V30 BEGIN ATOM
M  V30 1 S 3.4641 -0.5 0.0 0
M  V30 2 C 4.3301 0.0 0.0 0
M  V30 3 C 2.598 0.0 0.0 0
M  V30 4 N 5.2436 -0.4067 0.0 0
M  V30 5 N 4.4346 0.9945 0.0 0
M  V30 6 C 1.732 -0.5 0.0 0
M  V30 7 C 5.9128 0.3364 0.0 0
M  V30 8 C 5.4128 1.2024 0.0 0
M  V30 9 C 3.6915 1.6636 0.0 0
M  V30 10 O 0.866 0.0 0.0 0
M  V30 11 C 6.9128 0.3364 0.0 0
M  V30 12 C 5.9128 2.0684 0.0 0
M  V30 13 C 3.8994 2.6418 0.0 0
M  V30 14 C 0.0 -0.5 0.0 0
M  V30 15 C 7.4128 1.2024 0.0 0
M  V30 16 C 6.9128 2.0684 0.0 0
M  V30 17 O 4.8504 2.9508 0.0 0
M  V30 18 O 3.1562 3.3109 0.0 0
M  V30 19 C -0.866 0.0 0.0 0
M  V30 20 C 0.0 -1.4999 0.0 0
M  V30 21 C -1.732 -0.4999 0.0 0
M  V30 22 C -0.866 -1.9999 0.0 0
M  V30 23 C -1.732 -1.4999 0.0 0
M  V30 24 C -2.598 0.0 0.0 0
M  V30 25 C -2.598 -1.9999 0.0 0
M  V30 26 C -3.4641 -0.4999 0.0 0
M  V30 27 C -3.4641 -1.4999 0.0 0
M  V30 END ATOM
M  V30 BEGIN BOND
M  V30 1 1 1 2
M  V30 2 1 1 3
M  V30 3 2 2 4
M  V30 4 1 2 5
M  V30 5 1 3 6
M  V30 6 1 4 7
M  V30 7 1 5 8
M  V30 8 1 5 9
M  V30 9 1 6 10
M  V30 10 1 7 11
M  V30 11 1 8 12
M  V30 12 1 9 13
M  V30 13 1 10 14
M  V30 14 2 11 15
M  V30 15 2 12 16
M  V30 16 2 13 17
M  V30 17 1 13 18
M  V30 18 2 14 19
M  V30 19 1 14 20
M  V30 20 1 19 21
M  V30 21 2 20 22
M  V30 22 1 21 23
M  V30 23 2 21 24
M  V30 24 2 23 25
M  V30 25 1 24 26
M  V30 26 1 25 27
M  V30 27 2 7 8
M  V30 28 1 15 16
M  V30 29 1 22 23
M  V30 30 2 26 27
M  V30 END BOND
M  V30 END CTAB
M  END
>  <Molecule ChEMBL ID>
CHEMBL2048021

>  <Smiles>
O=C(O)Cn1c(SCCOc2ccc3ccccc3c2)nc2ccccc21

>  <IC50_nM>
2223

>  <Assay Description>
Displacement of fluormone from human PPARgamma LBD expressed in Escherichia coli BL21 DE3 by fluorescence polarization assay

$$$$
CHEMBL2037005
Actelion Java MolfileCreator 2.0

  0  0  0  0  0  0              0 V3000
M  V30 BEGIN CTAB
M  V30 COUNTS 37 40 0 0 0
M  V30 BEGIN ATOM
M  V30 1 O 7.7942 -0.75 0.0 0
M  V30 2 C 6.4951 0.0 0.0 0
M  V30 3 O 6.4951 1.5 0.0 0
M  V30 4 C 5.1961 -0.75 0.0 0 CFG=1
M  V30 5 O 5.1961 -2.25 0.0 0
M  V30 6 C 5.1961 0.75 0.0 0
M  V30 7 C 3.8971 0.0 0.0 0
M  V30 8 C 3.8971 -3.0 0.0 0
M  V30 9 C 3.8971 1.5 0.0 0
M  V30 10 C 2.598 -0.75 0.0 0
M  V30 11 C 2.598 -2.25 0.0 0
M  V30 12 C 3.8971 -4.5 0.0 0
M  V30 13 C 3.8971 3.0 0.0 0
M  V30 14 C 2.598 0.75 0.0 0
M  V30 15 C 1.299 0.0 0.0 0
M  V30 16 C 1.299 -3.0 0.0 0
M  V30 17 C 2.598 -5.25 0.0 0
M  V30 18 C 2.598 3.75 0.0 0
M  V30 19 C 1.299 1.5 0.0 0
M  V30 20 C 0.0 -0.75 0.0 0
M  V30 21 C 1.299 -4.5 0.0 0
M  V30 22 C 1.299 3.0 0.0 0
M  V30 23 O 0.0 3.75 0.0 0
M  V30 24 C -1.299 3.0 0.0 0
M  V30 25 C -2.598 3.75 0.0 0
M  V30 26 C -3.8971 3.0 0.0 0
M  V30 27 N -5.2674 3.6101 0.0 0
M  V30 28 C -4.0539 1.5082 0.0 0
M  V30 29 C -6.2711 2.4953 0.0 0
M  V30 30 O -5.5211 1.1963 0.0 0
M  V30 31 C -2.9391 0.5045 0.0 0
M  V30 32 C -7.7629 2.6521 0.0 0
M  V30 33 C -8.373 4.0224 0.0 0
M  V30 34 C -8.6445 1.4386 0.0 0
M  V30 35 C -9.8647 4.1792 0.0 0
M  V30 36 C -10.1363 1.5954 0.0 0
M  V30 37 C -10.7464 2.9657 0.0 0
M  V30 END ATOM
M  V30 BEGIN BOND
M  V30 1 2 1 2
M  V30 2 1 2 3
M  V30 3 1 2 4
M  V30 4 1 4 5
M  V30 5 1 4 6 CFG=1
M  V30 6 1 4 7
M  V30 7 1 5 8
M  V30 8 1 6 9
M  V30 9 1 7 10
M  V30 10 2 8 11
M  V30 11 1 8 12
M  V30 12 2 9 13
M  V30 13 1 9 14
M  V30 14 1 10 15
M  V30 15 1 11 16
M  V30 16 2 12 17
M  V30 17 1 13 18
M  V30 18 2 14 19
M  V30 19 1 15 20
M  V30 20 2 16 21
M  V30 21 2 18 22
M  V30 22 1 22 23
M  V30 23 1 23 24
M  V30 24 1 24 25
M  V30 25 1 25 26
M  V30 26 1 26 27
M  V30 27 2 26 28
M  V30 28 2 27 29
M  V30 29 1 28 30
M  V30 30 1 28 31
M  V30 31 1 29 32
M  V30 32 2 32 33
M  V30 33 1 32 34
M  V30 34 1 33 35
M  V30 35 2 34 36
M  V30 36 2 35 37
M  V30 37 1 17 21
M  V30 38 1 19 22
M  V30 39 1 29 30
M  V30 40 1 36 37
M  V30 END BOND
M  V30 BEGIN COLLECTION
M  V30 MDLV30/STEABS ATOMS=(1 4)
M  V30 END COLLECTION
M  V30 END CTAB
M  END
>  <Molecule ChEMBL ID>
CHEMBL2037005

>  <Smiles>
CCCC[C@@](Cc1ccc(OCCc2nc(-c3ccccc3)oc2C)cc1)(Oc1ccccc1)C(=O)O

>  <IC50_nM>
2238.72

>  <Assay Description>
Agonist activity at PPARgamma

$$$$
CHEMBL2037005
Actelion Java MolfileCreator 2.0

  0  0  0  0  0  0              0 V3000
M  V30 BEGIN CTAB
M  V30 COUNTS 37 40 0 0 0
M  V30 BEGIN ATOM
M  V30 1 O 7.7942 -0.75 0.0 0
M  V30 2 C 6.4951 0.0 0.0 0
M  V30 3 O 6.4951 1.5 0.0 0
M  V30 4 C 5.1961 -0.75 0.0 0 CFG=1
M  V30 5 O 5.1961 -2.25 0.0 0
M  V30 6 C 5.1961 0.75 0.0 0
M  V30 7 C 3.8971 0.0 0.0 0
M  V30 8 C 3.8971 -3.0 0.0 0
M  V30 9 C 3.8971 1.5 0.0 0
M  V30 10 C 2.598 -0.75 0.0 0
M  V30 11 C 2.598 -2.25 0.0 0
M  V30 12 C 3.8971 -4.5 0.0 0
M  V30 13 C 3.8971 3.0 0.0 0
M  V30 14 C 2.598 0.75 0.0 0
M  V30 15 C 1.299 0.0 0.0 0
M  V30 16 C 1.299 -3.0 0.0 0
M  V30 17 C 2.598 -5.25 0.0 0
M  V30 18 C 2.598 3.75 0.0 0
M  V30 19 C 1.299 1.5 0.0 0
M  V30 20 C 0.0 -0.75 0.0 0
M  V30 21 C 1.299 -4.5 0.0 0
M  V30 22 C 1.299 3.0 0.0 0
M  V30 23 O 0.0 3.75 0.0 0
M  V30 24 C -1.299 3.0 0.0 0
M  V30 25 C -2.598 3.75 0.0 0
M  V30 26 C -3.8971 3.0 0.0 0
M  V30 27 N -5.2674 3.6101 0.0 0
M  V30 28 C -4.0539 1.5082 0.0 0
M  V30 29 C -6.2711 2.4953 0.0 0
M  V30 30 O -5.5211 1.1963 0.0 0
M  V30 31 C -2.9391 0.5045 0.0 0
M  V30 32 C -7.7629 2.6521 0.0 0
M  V30 33 C -8.373 4.0224 0.0 0
M  V30 34 C -8.6445 1.4386 0.0 0
M  V30 35 C -9.8647 4.1792 0.0 0
M  V30 36 C -10.1363 1.5954 0.0 0
M  V30 37 C -10.7464 2.9657 0.0 0
M  V30 END ATOM
M  V30 BEGIN BOND
M  V30 1 2 1 2
M  V30 2 1 2 3
M  V30 3 1 2 4
M  V30 4 1 4 5
M  V30 5 1 4 6 CFG=1
M  V30 6 1 4 7
M  V30 7 1 5 8
M  V30 8 1 6 9
M  V30 9 1 7 10
M  V30 10 2 8 11
M  V30 11 1 8 12
M  V30 12 2 9 13
M  V30 13 1 9 14
M  V30 14 1 10 15
M  V30 15 1 11 16
M  V30 16 2 12 17
M  V30 17 1 13 18
M  V30 18 2 14 19
M  V30 19 1 15 20
M  V30 20 2 16 21
M  V30 21 2 18 22
M  V30 22 1 22 23
M  V30 23 1 23 24
M  V30 24 1 24 25
M  V30 25 1 25 26
M  V30 26 1 26 27
M  V30 27 2 26 28
M  V30 28 2 27 29
M  V30 29 1 28 30
M  V30 30 1 28 31
M  V30 31 1 29 32
M  V30 32 2 32 33
M  V30 33 1 32 34
M  V30 34 1 33 35
M  V30 35 2 34 36
M  V30 36 2 35 37
M  V30 37 1 17 21
M  V30 38 1 19 22
M  V30 39 1 29 30
M  V30 40 1 36 37
M  V30 END BOND
M  V30 BEGIN COLLECTION
M  V30 MDLV30/STEABS ATOMS=(1 4)
M  V30 END COLLECTION
M  V30 END CTAB
M  END
>  <Molecule ChEMBL ID>
CHEMBL2037005

>  <Smiles>
CCCC[C@@](Cc1ccc(OCCc2nc(-c3ccccc3)oc2C)cc1)(Oc1ccccc1)C(=O)O

>  <IC50_nM>
2241

>  <Assay Description>
Agonist activity at PPARgamma

$$$$
CHEMBL82193
Actelion Java MolfileCreator 2.0

  0  0  0  0  0  0              0 V3000
M  V30 BEGIN CTAB
M  V30 COUNTS 37 40 0 0 0
M  V30 BEGIN ATOM
M  V30 1 O 7.7942 -0.75 0.0 0
M  V30 2 C 6.4951 0.0 0.0 0
M  V30 3 O 6.4951 1.5 0.0 0
M  V30 4 C 5.1961 -0.75 0.0 0 CFG=1
M  V30 5 O 5.1961 -2.25 0.0 0
M  V30 6 C 5.1961 0.75 0.0 0
M  V30 7 C 3.8971 0.0 0.0 0
M  V30 8 C 3.8971 -3.0 0.0 0
M  V30 9 C 3.8971 1.5 0.0 0
M  V30 10 C 2.598 -0.75 0.0 0
M  V30 11 C 2.598 -2.25 0.0 0
M  V30 12 C 3.8971 -4.5 0.0 0
M  V30 13 C 3.8971 3.0 0.0 0
M  V30 14 C 2.598 0.75 0.0 0
M  V30 15 C 1.299 0.0 0.0 0
M  V30 16 C 1.299 -3.0 0.0 0
M  V30 17 C 2.598 -5.25 0.0 0
M  V30 18 C 2.598 3.75 0.0 0
M  V30 19 C 1.299 1.5 0.0 0
M  V30 20 C 0.0 -0.75 0.0 0
M  V30 21 C 1.299 -4.5 0.0 0
M  V30 22 C 1.299 3.0 0.0 0
M  V30 23 O 0.0 3.75 0.0 0
M  V30 24 C -1.299 3.0 0.0 0
M  V30 25 C -2.598 3.75 0.0 0
M  V30 26 C -3.8971 3.0 0.0 0
M  V30 27 N -5.2674 3.6101 0.0 0
M  V30 28 C -4.0539 1.5082 0.0 0
M  V30 29 C -6.2711 2.4953 0.0 0
M  V30 30 O -5.5211 1.1963 0.0 0
M  V30 31 C -2.9391 0.5045 0.0 0
M  V30 32 C -7.7629 2.6521 0.0 0
M  V30 33 C -8.373 4.0224 0.0 0
M  V30 34 C -8.6445 1.4386 0.0 0
M  V30 35 C -9.8647 4.1792 0.0 0
M  V30 36 C -10.1363 1.5954 0.0 0
M  V30 37 C -10.7464 2.9657 0.0 0
M  V30 END ATOM
M  V30 BEGIN BOND
M  V30 1 2 1 2
M  V30 2 1 2 3
M  V30 3 1 2 4
M  V30 4 1 4 5
M  V30 5 1 4 6 CFG=1
M  V30 6 1 4 7
M  V30 7 1 5 8
M  V30 8 1 6 9
M  V30 9 1 7 10
M  V30 10 2 8 11
M  V30 11 1 8 12
M  V30 12 2 9 13
M  V30 13 1 9 14
M  V30 14 1 10 15
M  V30 15 1 11 16
M  V30 16 2 12 17
M  V30 17 1 13 18
M  V30 18 2 14 19
M  V30 19 1 15 20
M  V30 20 2 16 21
M  V30 21 2 18 22
M  V30 22 1 22 23
M  V30 23 1 23 24
M  V30 24 1 24 25
M  V30 25 1 25 26
M  V30 26 1 26 27
M  V30 27 2 26 28
M  V30 28 2 27 29
M  V30 29 1 28 30
M  V30 30 1 28 31
M  V30 31 1 29 32
M  V30 32 2 32 33
M  V30 33 1 32 34
M  V30 34 1 33 35
M  V30 35 2 34 36
M  V30 36 2 35 37
M  V30 37 1 17 21
M  V30 38 1 19 22
M  V30 39 1 29 30
M  V30 40 1 36 37
M  V30 END BOND
M  V30 BEGIN COLLECTION
M  V30 MDLV30/STERAC1 ATOMS=(1 4)
M  V30 END COLLECTION
M  V30 END CTAB
M  END
>  <Molecule ChEMBL ID>
CHEMBL82193

>  <Smiles>
CCCCC(Cc1ccc(OCCc2nc(-c3ccccc3)oc2C)cc1)(Oc1ccccc1)C(=O)O

>  <IC50_nM>
2241

>  <Assay Description>
Displacement of PPARgamma agonist from human PPAR gamma receptor

$$$$
CHEMBL4743677
Actelion Java MolfileCreator 2.0

  0  0  0  0  0  0              0 V3000
M  V30 BEGIN CTAB
M  V30 COUNTS 25 25 0 0 0
M  V30 BEGIN ATOM
M  V30 1 O 11.2583 0.9999 0.0 0
M  V30 2 C 10.3923 1.5 0.0 0
M  V30 3 N 10.3923 2.5 0.0 0
M  V30 4 C 9.5262 0.9999 0.0 0
M  V30 5 C 11.2583 3.0 0.0 0 CFG=2
M  V30 6 C 8.6602 1.5 0.0 0
M  V30 7 C 9.5262 0.0 0.0 0
M  V30 8 C 12.1243 2.5 0.0 0
M  V30 9 C 11.2583 4.0 0.0 0
M  V30 10 C 7.7942 0.9999 0.0 0
M  V30 11 C 8.6602 -0.4999 0.0 0
M  V30 12 O 12.9903 3.0 0.0 0
M  V30 13 O 12.1243 1.5 0.0 0
M  V30 14 C 10.3923 4.5 0.0 0
M  V30 15 C 12.1243 4.5 0.0 0
M  V30 16 C 7.7942 0.0 0.0 0
M  V30 17 O 6.9282 -0.5 0.0 0
M  V30 18 C 6.0621 0.0 0.0 0
M  V30 19 C 5.1961 -0.5 0.0 0
M  V30 20 C 4.3301 0.0 0.0 0
M  V30 21 C 3.4641 -0.5 0.0 0
M  V30 22 C 2.598 0.0 0.0 0
M  V30 23 C 1.732 -0.5 0.0 0
M  V30 24 C 0.866 0.0 0.0 0
M  V30 25 C 0.0 -0.5 0.0 0
M  V30 END ATOM
M  V30 BEGIN BOND
M  V30 1 2 1 2
M  V30 2 1 2 3
M  V30 3 1 2 4
M  V30 4 1 5 3 CFG=1
M  V30 5 2 4 6
M  V30 6 1 4 7
M  V30 7 1 5 8
M  V30 8 1 5 9
M  V30 9 1 6 10
M  V30 10 2 7 11
M  V30 11 2 8 12
M  V30 12 1 8 13
M  V30 13 1 9 14
M  V30 14 1 9 15
M  V30 15 2 10 16
M  V30 16 1 16 17
M  V30 17 1 17 18
M  V30 18 1 18 19
M  V30 19 1 19 20
M  V30 20 1 20 21
M  V30 21 1 21 22
M  V30 22 1 22 23
M  V30 23 1 23 24
M  V30 24 1 24 25
M  V30 25 1 11 16
M  V30 END BOND
M  V30 BEGIN COLLECTION
M  V30 MDLV30/STEABS ATOMS=(1 5)
M  V30 END COLLECTION
M  V30 END CTAB
M  END
>  <Molecule ChEMBL ID>
CHEMBL4743677

>  <Smiles>
CCCCCCCCOc1ccc(C(=O)N[C@H](C(=O)O)C(C)C)cc1

>  <IC50_nM>
2248

>  <Assay Description>
Agonist activity at PPARg-LBD (unknown origin) expressed in HEK293 cells assessed as displacement of SMRT incubated for 16 hrs by luciferase reporter gene based mammalian two hybrid assay

$$$$
CHEMBL248530
Actelion Java MolfileCreator 2.0

  0  0  0  0  0  0              0 V3000
M  V30 BEGIN CTAB
M  V30 COUNTS 34 36 0 0 0
M  V30 BEGIN ATOM
M  V30 1 O 8.6602 -0.5 0.0 0
M  V30 2 C 7.7942 0.0 0.0 0
M  V30 3 O 7.7942 0.9999 0.0 0
M  V30 4 C 6.9282 -0.5 0.0 0
M  V30 5 N 6.0621 0.0 0.0 0
M  V30 6 C 6.0621 1.0 0.0 0
M  V30 7 C 5.1961 -0.5 0.0 0
M  V30 8 C 5.1961 1.5 0.0 0
M  V30 9 C 4.3301 0.0 0.0 0
M  V30 10 C 5.1961 2.5 0.0 0
M  V30 11 C 4.3301 1.0 0.0 0
M  V30 12 C 3.4641 -0.5 0.0 0
M  V30 13 C 4.3301 3.0 0.0 0
M  V30 14 C 3.4641 1.5 0.0 0
M  V30 15 C 2.598 0.0 0.0 0
M  V30 16 C 3.4641 2.5 0.0 0
M  V30 17 C 1.732 -0.5 0.0 0
M  V30 18 O 2.598 3.0 0.0 0
M  V30 19 C 0.866 0.0 0.0 0
M  V30 20 C 1.732 2.5 0.0 0
M  V30 21 C 0.0 -0.5 0.0 0
M  V30 22 C 0.866 3.0 0.0 0
M  V30 23 C 0.0 2.5 0.0 0
M  V30 24 N -0.9135 2.9067 0.0 0
M  V30 25 C -0.1045 1.5054 0.0 0
M  V30 26 C -1.5826 2.1635 0.0 0
M  V30 27 O -1.0826 1.2975 0.0 0
M  V30 28 C 0.6386 0.8363 0.0 0
M  V30 29 C -2.5771 2.2681 0.0 0
M  V30 30 C -2.9839 3.1816 0.0 0
M  V30 31 C -3.1649 1.4591 0.0 0
M  V30 32 C -3.9784 3.2861 0.0 0
M  V30 33 C -4.1595 1.5636 0.0 0
M  V30 34 C -4.5662 2.4771 0.0 0
M  V30 END ATOM
M  V30 BEGIN BOND
M  V30 1 2 1 2
M  V30 2 1 2 3
M  V30 3 1 2 4
M  V30 4 1 4 5
M  V30 5 1 5 6
M  V30 6 1 5 7
M  V30 7 1 6 8
M  V30 8 1 7 9
M  V30 9 2 8 10
M  V30 10 1 8 11
M  V30 11 1 9 12
M  V30 12 1 10 13
M  V30 13 2 11 14
M  V30 14 1 12 15
M  V30 15 2 13 16
M  V30 16 1 15 17
M  V30 17 1 16 18
M  V30 18 1 17 19
M  V30 19 1 18 20
M  V30 20 1 19 21
M  V30 21 1 20 22
M  V30 22 1 22 23
M  V30 23 1 23 24
M  V30 24 2 23 25
M  V30 25 2 24 26
M  V30 26 1 25 27
M  V30 27 1 25 28
M  V30 28 1 26 29
M  V30 29 2 29 30
M  V30 30 1 29 31
M  V30 31 1 30 32
M  V30 32 2 31 33
M  V30 33 2 32 34
M  V30 34 1 14 16
M  V30 35 1 26 27
M  V30 36 1 33 34
M  V30 END BOND
M  V30 END CTAB
M  END
>  <Molecule ChEMBL ID>
CHEMBL248530

>  <Smiles>
CCCCCCCN(CC(=O)O)Cc1ccc(OCCc2nc(-c3ccccc3)oc2C)cc1

>  <IC50_nM>
2300

>  <Assay Description>
Displacement of fluorescein labeled ligand from PPARgamma receptor by fluorescence polarization assay

$$$$
CHEMBL4876358
Actelion Java MolfileCreator 2.0

  0  0  0  0  0  0              0 V3000
M  V30 BEGIN CTAB
M  V30 COUNTS 32 34 0 0 0
M  V30 BEGIN ATOM
M  V30 1 S 6.4951 0.0 0.0 0
M  V30 2 O 7.2451 1.299 0.0 0
M  V30 3 O 5.7451 1.299 0.0 0
M  V30 4 N 5.1961 -0.75 0.0 0
M  V30 5 C 7.7942 -0.75 0.0 0
M  V30 6 C 3.8971 0.0 0.0 0
M  V30 7 C 7.7942 -2.25 0.0 0
M  V30 8 C 9.0932 0.0 0.0 0
M  V30 9 C 2.598 -0.75 0.0 0
M  V30 10 C 9.0932 -3.0 0.0 0
M  V30 11 C 10.3923 -0.75 0.0 0
M  V30 12 C 1.299 0.0 0.0 0
M  V30 13 C 2.598 -2.25 0.0 0
M  V30 14 C 10.3923 -2.25 0.0 0
M  V30 15 C 0.0 -0.75 0.0 0
M  V30 16 N 11.6913 -3.0 0.0 0
M  V30 17 C -1.299 0.0 0.0 0
M  V30 18 C 0.0 -2.25 0.0 0
M  V30 19 N 12.9903 -2.25 0.0 0
M  V30 20 C -2.598 -0.75 0.0 0
M  V30 21 C -1.299 -3.0 0.0 0
M  V30 22 C 14.2894 -3.0 0.0 0
M  V30 23 C -2.598 -2.25 0.0 0
M  V30 24 C 15.5884 -2.25 0.0 0
M  V30 25 C 16.8875 -3.0 0.0 0
M  V30 26 C 15.5884 -0.75 0.0 0
M  V30 27 C 18.1865 -2.25 0.0 0
M  V30 28 C 19.4855 -3.0 0.0 0
M  V30 29 C 18.1865 -0.75 0.0 0
M  V30 30 C 20.7846 -2.25 0.0 0
M  V30 31 C 19.4855 0.0 0.0 0
M  V30 32 C 20.7846 -0.75 0.0 0
M  V30 END ATOM
M  V30 BEGIN BOND
M  V30 1 2 1 2
M  V30 2 2 1 3
M  V30 3 1 1 4
M  V30 4 1 1 5
M  V30 5 2 4 6
M  V30 6 2 5 7
M  V30 7 1 5 8
M  V30 8 1 6 9
M  V30 9 1 7 10
M  V30 10 2 8 11
M  V30 11 2 9 12
M  V30 12 1 9 13
M  V30 13 2 10 14
M  V30 14 1 12 15
M  V30 15 1 14 16
M  V30 16 2 15 17
M  V30 17 1 15 18
M  V30 18 1 16 19
M  V30 19 1 17 20
M  V30 20 2 18 21
M  V30 21 2 19 22
M  V30 22 2 20 23
M  V30 23 1 22 24
M  V30 24 2 24 25
M  V30 25 1 24 26
M  V30 26 1 25 27
M  V30 27 2 27 28
M  V30 28 1 27 29
M  V30 29 1 28 30
M  V30 30 2 29 31
M  V30 31 2 30 32
M  V30 32 1 11 14
M  V30 33 1 21 23
M  V30 34 1 31 32
M  V30 END BOND
M  V30 END CTAB
M  END
>  <Molecule ChEMBL ID>
CHEMBL4876358

>  <Smiles>
CC(/C=N/Nc1ccc(S(=O)(=O)/N=C/C(C)=C/c2ccccc2)cc1)=C\c1ccccc1

>  <IC50_nM>
2300

>  <Assay Description>
Antagonist activity at PPARgamma (unknown origin) expressed in human LNCaP cells assessed as suppression of pioglitazone-induced PPAR response element driven firefly luciferase activity measured after 24 hrs by dual luciferase reporter assay

$$$$
CHEMBL1089164
Actelion Java MolfileCreator 2.0

  0  0  0  0  0  0              0 V3000
M  V30 BEGIN CTAB
M  V30 COUNTS 37 40 0 0 0
M  V30 BEGIN ATOM
M  V30 1 F 12.0709 15.4123 0.0 0
M  V30 2 C 11.1892 14.1988 0.0 0
M  V30 3 C 9.6974 14.3556 0.0 0
M  V30 4 C 11.7993 12.8285 0.0 0
M  V30 5 C 8.8158 13.1421 0.0 0
M  V30 6 C 10.9176 11.6149 0.0 0
M  V30 7 C 9.4259 11.7717 0.0 0
M  V30 8 C 8.5442 10.5582 0.0 0
M  V30 9 O 7.0442 10.5582 0.0 0
M  V30 10 N 9.0077 9.1316 0.0 0
M  V30 11 C 6.5807 9.1316 0.0 0
M  V30 12 C 7.7942 8.25 0.0 0
M  V30 13 C 5.1541 8.6681 0.0 0
M  V30 14 C 7.7942 6.75 0.0 0
M  V30 15 O 6.4951 6.0 0.0 0
M  V30 16 C 6.4951 4.5 0.0 0
M  V30 17 C 5.1961 3.75 0.0 0
M  V30 18 C 7.7942 3.75 0.0 0
M  V30 19 C 5.1961 2.25 0.0 0
M  V30 20 C 7.7942 2.25 0.0 0
M  V30 21 C 6.4951 1.5 0.0 0
M  V30 22 C 3.8971 1.5 0.0 0
M  V30 23 N 3.8971 0.0 0.0 0
M  V30 24 C 5.1961 -0.75 0.0 0
M  V30 25 C 2.598 -0.75 0.0 0
M  V30 26 O 5.1961 -2.25 0.0 0
M  V30 27 O 6.4951 0.0 0.0 0
M  V30 28 C 1.299 0.0 0.0 0
M  V30 29 C 7.7942 -0.75 0.0 0
M  V30 30 O 1.299 1.5 0.0 0
M  V30 31 O 0.0 -0.75 0.0 0
M  V30 32 C 7.7942 -2.25 0.0 0
M  V30 33 C 9.0932 0.0 0.0 0
M  V30 34 C 9.0932 -3.0 0.0 0
M  V30 35 C 10.3923 -0.75 0.0 0
M  V30 36 C 10.3923 -2.25 0.0 0
M  V30 37 C 11.6913 -3.0 0.0 0
M  V30 END ATOM
M  V30 BEGIN BOND
M  V30 1 1 1 2
M  V30 2 2 2 3
M  V30 3 1 2 4
M  V30 4 1 3 5
M  V30 5 2 4 6
M  V30 6 2 5 7
M  V30 7 1 7 8
M  V30 8 1 8 9
M  V30 9 2 8 10
M  V30 10 1 9 11
M  V30 11 1 10 12
M  V30 12 1 11 13
M  V30 13 1 12 14
M  V30 14 1 14 15
M  V30 15 1 15 16
M  V30 16 2 16 17
M  V30 17 1 16 18
M  V30 18 1 17 19
M  V30 19 2 18 20
M  V30 20 2 19 21
M  V30 21 1 19 22
M  V30 22 1 22 23
M  V30 23 1 23 24
M  V30 24 1 23 25
M  V30 25 2 24 26
M  V30 26 1 24 27
M  V30 27 1 25 28
M  V30 28 1 27 29
M  V30 29 2 28 30
M  V30 30 1 28 31
M  V30 31 2 29 32
M  V30 32 1 29 33
M  V30 33 1 32 34
M  V30 34 2 33 35
M  V30 35 2 34 36
M  V30 36 1 36 37
M  V30 37 1 6 7
M  V30 38 2 11 12
M  V30 39 1 20 21
M  V30 40 1 35 36
M  V30 END BOND
M  V30 END CTAB
M  END
>  <Molecule ChEMBL ID>
CHEMBL1089164

>  <Smiles>
Cc1ccc(OC(=O)N(CC(=O)O)Cc2cccc(OCc3nc(-c4ccc(F)cc4)oc3C)c2)cc1

>  <IC50_nM>
2300

>  <Assay Description>
Binding affinity to human His-tagged PPARgamma LBD (Q203-Y477) expressed in Escherichia coli BL21 (DE3) by fluorescence polarization assay

$$$$
CHEMBL4561516
Actelion Java MolfileCreator 2.0

  0  0  0  0  0  0              0 V3000
M  V30 BEGIN CTAB
M  V30 COUNTS 42 45 0 0 0
M  V30 BEGIN ATOM
M  V30 1 F 6.9282 5.5 0.0 0
M  V30 2 C 6.9282 4.5 0.0 0
M  V30 3 C 6.0621 4.0 0.0 0
M  V30 4 C 7.7942 4.0 0.0 0
M  V30 5 C 6.0621 2.9999 0.0 0
M  V30 6 C 7.7942 3.0 0.0 0
M  V30 7 C 6.9282 2.4999 0.0 0
M  V30 8 C 6.9282 1.5 0.0 0
M  V30 9 O 6.0621 1.0 0.0 0
M  V30 10 C 6.0621 0.0 0.0 0
M  V30 11 C 5.1961 -0.5 0.0 0
M  V30 12 C 6.9282 -0.4999 0.0 0
M  V30 13 C 5.1961 -1.4999 0.0 0
M  V30 14 C 4.3301 0.0 0.0 0
M  V30 15 C 6.9282 -1.4999 0.0 0
M  V30 16 C 6.0621 -1.9999 0.0 0
M  V30 17 C 3.4641 -0.5 0.0 0
M  V30 18 O 6.0621 -2.9999 0.0 0
M  V30 19 C 2.598 0.0 0.0 0
M  V30 20 C 3.4641 -1.5 0.0 0
M  V30 21 C 5.1961 -3.5 0.0 0
M  V30 22 O 1.732 -0.4999 0.0 0
M  V30 23 O 2.598 0.9999 0.0 0
M  V30 24 C 2.598 -1.9999 0.0 0
M  V30 25 C 5.1961 -4.5 0.0 0
M  V30 26 C 2.598 -2.9999 0.0 0
M  V30 27 C 4.3301 -4.9999 0.0 0
M  V30 28 C 6.0621 -5.0 0.0 0
M  V30 29 C 1.732 -3.5 0.0 0
M  V30 30 C 4.3301 -5.9999 0.0 0
M  V30 31 C 6.0621 -6.0 0.0 0
M  V30 32 C 3.4641 -6.4999 0.0 0
M  V30 33 C 5.1961 -6.5 0.0 0
M  V30 34 O 2.598 -5.9999 0.0 0
M  V30 35 C 3.4641 -7.5 0.0 0
M  V30 36 N 5.1961 -7.5 0.0 0
M  V30 37 C 1.732 -6.4999 0.0 0
M  V30 38 C 4.3301 -8.0 0.0 0
M  V30 39 C 4.3301 -9.0 0.0 0
M  V30 40 F 5.3301 -9.0 0.0 0
M  V30 41 F 4.3301 -10.0 0.0 0
M  V30 42 F 3.3301 -9.0 0.0 0
M  V30 END ATOM
M  V30 BEGIN BOND
M  V30 1 1 1 2
M  V30 2 2 2 3
M  V30 3 1 2 4
M  V30 4 1 3 5
M  V30 5 2 4 6
M  V30 6 2 5 7
M  V30 7 1 7 8
M  V30 8 1 8 9
M  V30 9 1 9 10
M  V30 10 2 10 11
M  V30 11 1 10 12
M  V30 12 1 11 13
M  V30 13 1 11 14
M  V30 14 2 12 15
M  V30 15 2 13 16
M  V30 16 2 14 17
M  V30 17 1 16 18
M  V30 18 1 17 19
M  V30 19 1 17 20
M  V30 20 1 18 21
M  V30 21 2 19 22
M  V30 22 1 19 23
M  V30 23 1 20 24
M  V30 24 1 21 25
M  V30 25 1 24 26
M  V30 26 2 25 27
M  V30 27 1 25 28
M  V30 28 1 26 29
M  V30 29 1 27 30
M  V30 30 2 28 31
M  V30 31 2 30 32
M  V30 32 1 30 33
M  V30 33 1 32 34
M  V30 34 1 32 35
M  V30 35 2 33 36
M  V30 36 1 34 37
M  V30 37 2 35 38
M  V30 38 1 38 39
M  V30 39 1 39 40
M  V30 40 1 39 41
M  V30 41 1 39 42
M  V30 42 1 6 7
M  V30 43 1 15 16
M  V30 44 1 31 33
M  V30 45 1 36 38
M  V30 END BOND
M  V30 END CTAB
M  END
>  <Molecule ChEMBL ID>
CHEMBL4561516

>  <Smiles>
CCCC/C(=C\c1cc(OCc2ccc3nc(C(F)(F)F)cc(OC)c3c2)ccc1OCc1ccc(F)cc1)C(=O)O

>  <IC50_nM>
2300

>  <Assay Description>
Antagonist actvity in pFA-GAL4-DBD fused PPARgamma LBD (unknown origin) transfected in HEK293T cells assessed as inhibition of rosiglitazone-induced PPARgamma transactivation incubated for 24 hrs by luciferase reporter gene assay

$$$$
CHEMBL431450
Actelion Java MolfileCreator 2.0

  0  0  0  0  0  0              0 V3000
M  V30 BEGIN CTAB
M  V30 COUNTS 36 39 0 0 0
M  V30 BEGIN ATOM
M  V30 1 O 11.2583 0.9999 0.0 0
M  V30 2 C 10.3923 1.4999 0.0 0
M  V30 3 O 10.3923 2.4999 0.0 0
M  V30 4 C 9.5262 0.9999 0.0 0 CFG=1
M  V30 5 O 8.6602 1.4999 0.0 0
M  V30 6 C 9.5262 0.0 0.0 0
M  V30 7 C 10.3923 0.4999 0.0 0
M  V30 8 C 7.7942 0.9999 0.0 0
M  V30 9 C 8.6602 -0.5 0.0 0
M  V30 10 C 7.7942 0.0 0.0 0
M  V30 11 C 6.9282 1.4999 0.0 0
M  V30 12 C 6.9282 -0.5 0.0 0
M  V30 13 C 6.0621 1.0 0.0 0
M  V30 14 C 6.0621 0.0 0.0 0
M  V30 15 O 5.1961 -0.5 0.0 0
M  V30 16 C 4.3301 0.0 0.0 0
M  V30 17 C 3.4641 -0.5 0.0 0
M  V30 18 C 2.598 0.0 0.0 0
M  V30 19 C 1.732 -0.5 0.0 0
M  V30 20 O 0.866 0.0 0.0 0
M  V30 21 C 0.0 -0.5 0.0 0
M  V30 22 C -0.866 0.0 0.0 0
M  V30 23 C 0.0 -1.4999 0.0 0
M  V30 24 C -1.732 -0.4999 0.0 0
M  V30 25 C -0.866 1.0 0.0 0
M  V30 26 C -0.866 -1.9999 0.0 0
M  V30 27 C -1.732 -1.4999 0.0 0
M  V30 28 C 0.0 1.5 0.0 0
M  V30 29 O -2.598 -1.9999 0.0 0
M  V30 30 C 0.0 2.5 0.0 0
M  V30 31 C -2.598 -2.9999 0.0 0
M  V30 32 C -3.4641 -3.4999 0.0 0
M  V30 33 C -1.732 -3.4999 0.0 0
M  V30 34 C -3.4641 -4.4999 0.0 0
M  V30 35 C -1.732 -4.4999 0.0 0
M  V30 36 C -2.598 -4.9999 0.0 0
M  V30 END ATOM
M  V30 BEGIN BOND
M  V30 1 2 1 2
M  V30 2 1 2 3
M  V30 3 1 2 4
M  V30 4 1 4 5
M  V30 5 1 4 6
M  V30 6 1 4 7 CFG=1
M  V30 7 1 5 8
M  V30 8 1 6 9
M  V30 9 2 8 10
M  V30 10 1 8 11
M  V30 11 1 10 12
M  V30 12 2 11 13
M  V30 13 2 12 14
M  V30 14 1 14 15
M  V30 15 1 15 16
M  V30 16 1 16 17
M  V30 17 1 17 18
M  V30 18 1 18 19
M  V30 19 1 19 20
M  V30 20 1 20 21
M  V30 21 2 21 22
M  V30 22 1 21 23
M  V30 23 1 22 24
M  V30 24 1 22 25
M  V30 25 2 23 26
M  V30 26 2 24 27
M  V30 27 1 25 28
M  V30 28 1 27 29
M  V30 29 1 28 30
M  V30 30 1 29 31
M  V30 31 2 31 32
M  V30 32 1 31 33
M  V30 33 1 32 34
M  V30 34 2 33 35
M  V30 35 2 34 36
M  V30 36 1 9 10
M  V30 37 1 13 14
M  V30 38 1 26 27
M  V30 39 1 35 36
M  V30 END BOND
M  V30 BEGIN COLLECTION
M  V30 MDLV30/STERAC1 ATOMS=(1 4)
M  V30 END COLLECTION
M  V30 END CTAB
M  END
>  <Molecule ChEMBL ID>
CHEMBL431450

>  <Smiles>
CCCc1cc(Oc2ccccc2)ccc1OCCCCOc1ccc2c(c1)CCC(C)(C(=O)O)O2

>  <IC50_nM>
2300

>  <Assay Description>
In vitro binding affinity for human peroxisome proliferator activated receptor gamma using scintillation proximity assay (SPA)

$$$$
CHEMBL4850980
Actelion Java MolfileCreator 2.0

  0  0  0  0  0  0              0 V3000
M  V30 BEGIN CTAB
M  V30 COUNTS 28 30 0 0 0
M  V30 BEGIN ATOM
M  V30 1 S 2.598 -0.75 0.0 0
M  V30 2 O 1.848 -2.049 0.0 0
M  V30 3 O 3.348 -2.049 0.0 0
M  V30 4 N 1.299 0.0 0.0 0
M  V30 5 C 3.8971 0.0 0.0 0
M  V30 6 C 0.0 -0.75 0.0 0
M  V30 7 C 5.1961 -0.75 0.0 0
M  V30 8 C 3.8971 1.5 0.0 0
M  V30 9 C -1.299 0.0 0.0 0
M  V30 10 C 0.0 -2.25 0.0 0
M  V30 11 C 6.4952 0.0 0.0 0
M  V30 12 C 5.1961 2.25 0.0 0
M  V30 13 N -1.299 1.5 0.0 0
M  V30 14 C -2.598 -0.75 0.0 0
M  V30 15 C -1.299 -3.0 0.0 0
M  V30 16 C 6.4952 1.5 0.0 0
M  V30 17 C 0.0 2.25 0.0 0
M  V30 18 C -2.598 -2.25 0.0 0
M  V30 19 C 7.7942 2.25 0.0 0
M  V30 20 C 0.0 3.75 0.0 0
M  V30 21 C 1.299 4.5 0.0 0
M  V30 22 C -1.299 4.5 0.0 0
M  V30 23 O 2.598 3.75 0.0 0
M  V30 24 C 1.299 6.0 0.0 0
M  V30 25 C -1.299 6.0 0.0 0
M  V30 26 C 0.0 6.75 0.0 0
M  V30 27 O -2.598 6.75 0.0 0
M  V30 28 C -3.8971 6.0 0.0 0
M  V30 END ATOM
M  V30 BEGIN BOND
M  V30 1 2 1 2
M  V30 2 2 1 3
M  V30 3 1 1 4
M  V30 4 1 1 5
M  V30 5 1 4 6
M  V30 6 2 5 7
M  V30 7 1 5 8
M  V30 8 2 6 9
M  V30 9 1 6 10
M  V30 10 1 7 11
M  V30 11 2 8 12
M  V30 12 1 9 13
M  V30 13 1 9 14
M  V30 14 2 10 15
M  V30 15 2 11 16
M  V30 16 2 13 17
M  V30 17 2 14 18
M  V30 18 1 16 19
M  V30 19 1 17 20
M  V30 20 2 20 21
M  V30 21 1 20 22
M  V30 22 1 21 23
M  V30 23 1 21 24
M  V30 24 2 22 25
M  V30 25 2 24 26
M  V30 26 1 25 27
M  V30 27 1 27 28
M  V30 28 1 12 16
M  V30 29 1 15 18
M  V30 30 1 25 26
M  V30 END BOND
M  V30 END CTAB
M  END
>  <Molecule ChEMBL ID>
CHEMBL4850980

>  <Smiles>
COc1ccc(O)c(/C=N/c2ccccc2NS(=O)(=O)c2ccc(C)cc2)c1

>  <IC50_nM>
2300

>  <Assay Description>
Antagonist activity at PPARgamma (unknown origin) expressed in human LNCaP cells assessed as suppression of pioglitazone-induced PPAR response element driven firefly luciferase activity measured after 24 hrs by dual luciferase reporter assay

$$$$
CHEMBL2031860
Actelion Java MolfileCreator 2.0

  0  0  0  0  0  0              0 V3000
M  V30 BEGIN CTAB
M  V30 COUNTS 27 28 0 0 0
M  V30 BEGIN ATOM
M  V30 1 F 19.4855 -7.5 0.0 0
M  V30 2 C 18.1865 -6.75 0.0 0
M  V30 3 C 18.1865 -5.2499 0.0 0
M  V30 4 C 16.8874 -7.5 0.0 0
M  V30 5 C 16.8874 -4.5 0.0 0
M  V30 6 C 15.5884 -6.75 0.0 0
M  V30 7 C 15.5884 -5.25 0.0 0
M  V30 8 C 14.2894 -4.5 0.0 0
M  V30 9 C 14.2894 -3.0 0.0 0
M  V30 10 C 12.9903 -2.25 0.0 0
M  V30 11 C 12.9903 -0.75 0.0 0
M  V30 12 C 11.6913 -3.0 0.0 0
M  V30 13 C 11.6913 0.0 0.0 0
M  V30 14 C 10.3923 -2.25 0.0 0
M  V30 15 O 11.6913 1.4999 0.0 0
M  V30 16 C 10.3923 -0.75 0.0 0
M  V30 17 O 9.0932 -2.9999 0.0 0
M  V30 18 C 9.0932 0.0 0.0 0
M  V30 19 C 7.7942 -0.75 0.0 0
M  V30 20 C 6.4951 0.0 0.0 0
M  V30 21 C 5.1961 -0.75 0.0 0
M  V30 22 C 6.4951 1.5 0.0 0
M  V30 23 C 3.8971 0.0 0.0 0
M  V30 24 C 2.598 -0.75 0.0 0
M  V30 25 C 1.299 0.0 0.0 0
M  V30 26 C 1.299 1.5 0.0 0
M  V30 27 C 0.0 -0.75 0.0 0
M  V30 END ATOM
M  V30 BEGIN BOND
M  V30 1 1 1 2
M  V30 2 2 2 3
M  V30 3 1 2 4
M  V30 4 1 3 5
M  V30 5 2 4 6
M  V30 6 2 5 7
M  V30 7 1 7 8
M  V30 8 2 8 9
M  V30 9 1 9 10
M  V30 10 2 10 11
M  V30 11 1 10 12
M  V30 12 1 11 13
M  V30 13 2 12 14
M  V30 14 1 13 15
M  V30 15 2 13 16
M  V30 16 1 14 17
M  V30 17 1 16 18
M  V30 18 1 18 19
M  V30 19 2 19 20
M  V30 20 1 20 21
M  V30 21 1 20 22
M  V30 22 1 21 23
M  V30 23 1 23 24
M  V30 24 2 24 25
M  V30 25 1 25 26
M  V30 26 1 25 27
M  V30 27 1 6 7
M  V30 28 1 14 16
M  V30 END BOND
M  V30 END CTAB
M  END
>  <Molecule ChEMBL ID>
CHEMBL2031860

>  <Smiles>
CC(C)=CCC/C(C)=C/Cc1c(O)cc(/C=C/c2ccc(F)cc2)cc1O

>  <IC50_nM>
2320

>  <Assay Description>
Binding affinity to GST-tagged human PPARgamma by TR-FRET analysis

$$$$
CHEMBL4276678
Actelion Java MolfileCreator 2.0

  0  0  0  0  0  0              0 V3000
M  V30 BEGIN CTAB
M  V30 COUNTS 26 28 0 0 0
M  V30 BEGIN ATOM
M  V30 1 S 5.2531 -3.5877 0.0 0
M  V30 2 C 5.5621 -4.5388 0.0 0
M  V30 3 C 6.0621 -3.0 0.0 0
M  V30 4 O 4.9743 -5.3478 0.0 0
M  V30 5 N 6.5621 -4.5388 0.0 0
M  V30 6 C 6.8711 -3.5877 0.0 0
M  V30 7 C 6.0621 -1.9999 0.0 0
M  V30 8 O 7.8222 -3.2787 0.0 0
M  V30 9 C 5.1961 -1.4999 0.0 0
M  V30 10 C 5.1961 -0.5 0.0 0
M  V30 11 C 4.3301 -1.9999 0.0 0
M  V30 12 C 4.3301 0.0 0.0 0
M  V30 13 C 3.4641 -1.5 0.0 0
M  V30 14 C 3.4641 -0.5 0.0 0
M  V30 15 O 2.598 0.0 0.0 0
M  V30 16 C 1.732 -0.5 0.0 0
M  V30 17 C 0.866 0.0 0.0 0 CFG=1
M  V30 18 O 0.866 1.0 0.0 0
M  V30 19 C 0.0 -0.5 0.0 0
M  V30 20 C -0.866 0.0 0.0 0
M  V30 21 C 0.0 -1.4999 0.0 0
M  V30 22 C -1.732 -0.4999 0.0 0
M  V30 23 C -0.866 -1.9999 0.0 0
M  V30 24 O -2.598 0.0 0.0 0
M  V30 25 C -1.732 -1.4999 0.0 0
M  V30 26 C -3.4641 -0.4999 0.0 0
M  V30 END ATOM
M  V30 BEGIN BOND
M  V30 1 1 1 2
M  V30 2 1 1 3
M  V30 3 2 2 4
M  V30 4 1 2 5
M  V30 5 1 3 6
M  V30 6 1 3 7
M  V30 7 2 6 8
M  V30 8 1 7 9
M  V30 9 2 9 10
M  V30 10 1 9 11
M  V30 11 1 10 12
M  V30 12 2 11 13
M  V30 13 2 12 14
M  V30 14 1 14 15
M  V30 15 1 15 16
M  V30 16 1 16 17
M  V30 17 1 17 18 CFG=3
M  V30 18 1 17 19
M  V30 19 2 19 20
M  V30 20 1 19 21
M  V30 21 1 20 22
M  V30 22 2 21 23
M  V30 23 1 22 24
M  V30 24 2 22 25
M  V30 25 1 24 26
M  V30 26 1 5 6
M  V30 27 1 13 14
M  V30 28 1 23 25
M  V30 END BOND
M  V30 BEGIN COLLECTION
M  V30 MDLV30/STEABS ATOMS=(1 17)
M  V30 END COLLECTION
M  V30 END CTAB
M  END
>  <Molecule ChEMBL ID>
CHEMBL4276678

>  <Smiles>
COc1cccc([C@H](O)COc2ccc(CC3SC(=O)NC3=O)cc2)c1

>  <IC50_nM>
2320

>  <Assay Description>
Competitive displacement of fluorescently labelled PPAR tracer ligand from GST-tagged human PPARgamma ligand binding domain after 1 hr in dark by TR-FRET competitive binding assay

$$$$
CHEMBL491501
Actelion Java MolfileCreator 2.0

  0  0  0  0  0  0              0 V3000
M  V30 BEGIN CTAB
M  V30 COUNTS 32 34 0 0 0
M  V30 BEGIN ATOM
M  V30 1 Br 10.3923 2.25 0.0 0
M  V30 2 C 9.0932 1.5 0.0 0
M  V30 3 C 7.7942 2.25 0.0 0
M  V30 4 C 9.0932 0.0 0.0 0
M  V30 5 C 6.4952 1.5 0.0 0
M  V30 6 C 7.7942 -0.75 0.0 0
M  V30 7 C 6.4952 0.0 0.0 0
M  V30 8 S 5.1961 -0.75 0.0 0
M  V30 9 O 4.4461 -2.049 0.0 0
M  V30 10 O 5.9461 -2.049 0.0 0
M  V30 11 N 3.8971 0.0 0.0 0
M  V30 12 C 2.598 -0.75 0.0 0
M  V30 13 C 1.299 0.0 0.0 0
M  V30 14 C 0.0 -0.75 0.0 0
M  V30 15 C -1.299 0.0 0.0 0
M  V30 16 C 0.0 -2.25 0.0 0
M  V30 17 C -2.598 -0.75 0.0 0
M  V30 18 C -1.299 -3.0 0.0 0
M  V30 19 C -2.598 -2.25 0.0 0
M  V30 20 S -3.8971 -3.0 0.0 0
M  V30 21 O -4.6471 -4.299 0.0 0
M  V30 22 O -3.1471 -4.299 0.0 0
M  V30 23 N -5.1961 -2.25 0.0 0
M  V30 24 C -6.4952 -3.0 0.0 0
M  V30 25 O -6.4952 -4.5 0.0 0
M  V30 26 N -7.7942 -2.25 0.0 0
M  V30 27 C -9.0932 -3.0 0.0 0
M  V30 28 C -10.3923 -2.25 0.0 0
M  V30 29 C -9.0932 -4.5 0.0 0
M  V30 30 C -11.6913 -3.0 0.0 0
M  V30 31 C -10.3923 -5.25 0.0 0
M  V30 32 C -11.6913 -4.5 0.0 0
M  V30 END ATOM
M  V30 BEGIN BOND
M  V30 1 1 1 2
M  V30 2 2 2 3
M  V30 3 1 2 4
M  V30 4 1 3 5
M  V30 5 2 4 6
M  V30 6 2 5 7
M  V30 7 1 7 8
M  V30 8 2 8 9
M  V30 9 2 8 10
M  V30 10 1 8 11
M  V30 11 1 11 12
M  V30 12 1 12 13
M  V30 13 1 13 14
M  V30 14 2 14 15
M  V30 15 1 14 16
M  V30 16 1 15 17
M  V30 17 2 16 18
M  V30 18 2 17 19
M  V30 19 1 19 20
M  V30 20 2 20 21
M  V30 21 2 20 22
M  V30 22 1 20 23
M  V30 23 1 23 24
M  V30 24 2 24 25
M  V30 25 1 24 26
M  V30 26 1 26 27
M  V30 27 1 27 28
M  V30 28 1 27 29
M  V30 29 1 28 30
M  V30 30 1 29 31
M  V30 31 1 30 32
M  V30 32 1 6 7
M  V30 33 1 18 19
M  V30 34 1 31 32
M  V30 END BOND
M  V30 END CTAB
M  END
>  <Molecule ChEMBL ID>
CHEMBL491501

>  <Smiles>
O=C(NC1CCCCC1)NS(=O)(=O)c1ccc(CCNS(=O)(=O)c2ccc(Br)cc2)cc1

>  <IC50_nM>
2390

>  <Assay Description>
Displacement of fluormone-PPARgamma green from GST-tagged PPARgamma-LBD (unknown origin) by fluorescence polarization assay

$$$$
CHEMBL491924
Actelion Java MolfileCreator 2.0

  0  0  0  0  0  0              0 V3000
M  V30 BEGIN CTAB
M  V30 COUNTS 37 39 0 0 0
M  V30 BEGIN ATOM
M  V30 1 S 5.1961 -0.75 0.0 0
M  V30 2 O 4.4461 -2.049 0.0 0
M  V30 3 O 5.9461 -2.049 0.0 0
M  V30 4 N 3.8971 0.0 0.0 0
M  V30 5 C 6.4952 0.0 0.0 0
M  V30 6 C 2.598 -0.75 0.0 0
M  V30 7 C 7.7942 -0.75 0.0 0
M  V30 8 C 6.4952 1.5 0.0 0
M  V30 9 O 2.598 -2.25 0.0 0
M  V30 10 N 1.299 0.0 0.0 0
M  V30 11 C 9.0932 0.0 0.0 0
M  V30 12 C 7.7942 2.25 0.0 0
M  V30 13 C 0.0 -0.75 0.0 0
M  V30 14 C 9.0932 1.5 0.0 0
M  V30 15 C -1.299 0.0 0.0 0
M  V30 16 C 0.0 -2.25 0.0 0
M  V30 17 C 10.3923 2.25 0.0 0
M  V30 18 C -2.598 -0.75 0.0 0
M  V30 19 C -1.299 -3.0 0.0 0
M  V30 20 C 11.6913 1.5 0.0 0
M  V30 21 C -2.598 -2.25 0.0 0
M  V30 22 N 12.9904 2.25 0.0 0
M  V30 23 C -3.8971 -3.0 0.0 0
M  V30 24 S 14.2894 1.5 0.0 0
M  V30 25 O 13.5394 0.201 0.0 0
M  V30 26 O 15.0394 0.201 0.0 0
M  V30 27 C 15.5884 2.25 0.0 0
M  V30 28 C 16.8875 1.5 0.0 0
M  V30 29 C 15.5884 3.75 0.0 0
M  V30 30 C 18.1865 2.25 0.0 0
M  V30 31 C 16.8875 4.5 0.0 0
M  V30 32 C 18.1865 3.75 0.0 0
M  V30 33 C 19.4856 1.5 0.0 0
M  V30 34 N 19.4856 4.5 0.0 0
M  V30 35 C 20.7846 3.75 0.0 0
M  V30 36 O 20.7846 2.25 0.0 0
M  V30 37 C 22.0836 4.5 0.0 0
M  V30 END ATOM
M  V30 BEGIN BOND
M  V30 1 2 1 2
M  V30 2 2 1 3
M  V30 3 1 1 4
M  V30 4 1 1 5
M  V30 5 1 4 6
M  V30 6 2 5 7
M  V30 7 1 5 8
M  V30 8 2 6 9
M  V30 9 1 6 10
M  V30 10 1 7 11
M  V30 11 2 8 12
M  V30 12 1 10 13
M  V30 13 2 11 14
M  V30 14 1 13 15
M  V30 15 1 13 16
M  V30 16 1 14 17
M  V30 17 1 15 18
M  V30 18 1 16 19
M  V30 19 1 17 20
M  V30 20 1 18 21
M  V30 21 1 20 22
M  V30 22 1 21 23
M  V30 23 1 22 24
M  V30 24 2 24 25
M  V30 25 2 24 26
M  V30 26 1 24 27
M  V30 27 2 27 28
M  V30 28 1 27 29
M  V30 29 1 28 30
M  V30 30 2 29 31
M  V30 31 2 30 32
M  V30 32 1 30 33
M  V30 33 1 32 34
M  V30 34 1 34 35
M  V30 35 2 35 36
M  V30 36 1 35 37
M  V30 37 1 12 14
M  V30 38 1 19 21
M  V30 39 1 31 32
M  V30 END BOND
M  V30 END CTAB
M  END
>  <Molecule ChEMBL ID>
CHEMBL491924

>  <Smiles>
CC(=O)Nc1ccc(S(=O)(=O)NCCc2ccc(S(=O)(=O)NC(=O)NC3CCC(C)CC3)cc2)cc1C

>  <IC50_nM>
2400

>  <Assay Description>
Displacement of fluormone-PPARgamma green from GST-tagged PPARgamma-LBD (unknown origin) by fluorescence polarization assay

$$$$
CHEMBL465183
Actelion Java MolfileCreator 2.0

  0  0  0  0  0  0              0 V3000
M  V30 BEGIN CTAB
M  V30 COUNTS 22 21 0 0 0
M  V30 BEGIN ATOM
M  V30 1 O 20.7846 -9.75 0.0 0
M  V30 2 C 19.4855 -9.0 0.0 0
M  V30 3 O 18.1865 -9.75 0.0 0
M  V30 4 C 19.4855 -7.5 0.0 0
M  V30 5 C 18.1865 -6.75 0.0 0
M  V30 6 C 18.1865 -5.25 0.0 0
M  V30 7 C 16.8874 -4.5 0.0 0
M  V30 8 C 16.8874 -3.0 0.0 0
M  V30 9 C 15.5884 -2.25 0.0 0
M  V30 10 C 15.5884 -0.75 0.0 0
M  V30 11 C 14.2894 0.0 0.0 0
M  V30 12 C 12.9903 -0.75 0.0 0
M  V30 13 C 11.6913 0.0 0.0 0
M  V30 14 C 10.3923 -0.75 0.0 0
M  V30 15 C 10.3923 -2.25 0.0 0
M  V30 16 C 9.0932 -3.0 0.0 0
M  V30 17 C 9.0932 -4.5 0.0 0
M  V30 18 C 10.3923 -5.25 0.0 0
M  V30 19 C 10.3923 -6.75 0.0 0
M  V30 20 C 11.6913 -7.5 0.0 0
M  V30 21 C 11.6913 -9.0 0.0 0
M  V30 22 C 12.9903 -9.75 0.0 0
M  V30 END ATOM
M  V30 BEGIN BOND
M  V30 1 2 1 2
M  V30 2 1 2 3
M  V30 3 1 2 4
M  V30 4 1 4 5
M  V30 5 1 5 6
M  V30 6 1 6 7
M  V30 7 1 7 8
M  V30 8 1 8 9
M  V30 9 1 9 10
M  V30 10 2 10 11
M  V30 11 1 11 12
M  V30 12 1 12 13
M  V30 13 2 13 14
M  V30 14 1 14 15
M  V30 15 1 15 16
M  V30 16 2 16 17
M  V30 17 1 17 18
M  V30 18 1 18 19
M  V30 19 1 19 20
M  V30 20 1 20 21
M  V30 21 1 21 22
M  V30 END BOND
M  V30 END CTAB
M  END
>  <Molecule ChEMBL ID>
CHEMBL465183

>  <Smiles>
CCCCC/C=C\C/C=C\C/C=C\CCCCCCC(=O)O

>  <IC50_nM>
2400

>  <Assay Description>
Displacement of [3H]BRL49653 from Homo sapiens (human) PPARgamma receptor by scintillation proximity assay

$$$$
CHEMBL4876041
Actelion Java MolfileCreator 2.0

  0  0  0  0  0  0              0 V3000
M  V30 BEGIN CTAB
M  V30 COUNTS 29 31 0 0 0
M  V30 BEGIN ATOM
M  V30 1 Cl 6.9282 1.4999 0.0 0
M  V30 2 C 7.7942 1.0 0.0 0
M  V30 3 C 7.7942 0.0 0.0 0
M  V30 4 C 8.6602 1.4999 0.0 0
M  V30 5 O 6.9282 -0.5 0.0 0
M  V30 6 C 8.6602 -0.4999 0.0 0
M  V30 7 C 9.5262 1.0 0.0 0
M  V30 8 C 6.0621 0.0 0.0 0
M  V30 9 C 9.5262 0.0 0.0 0
M  V30 10 Cl 10.3923 1.5 0.0 0
M  V30 11 C 5.1961 -0.5 0.0 0
M  V30 12 C 4.3301 0.0 0.0 0
M  V30 13 C 3.4641 -0.5 0.0 0
M  V30 14 O 3.4641 -1.5 0.0 0
M  V30 15 N 2.598 0.0 0.0 0
M  V30 16 C 1.732 -0.5 0.0 0 CFG=2
M  V30 17 C 1.732 -1.5 0.0 0
M  V30 18 C 0.866 0.0 0.0 0
M  V30 19 O 0.866 -2.0 0.0 0
M  V30 20 O 2.598 -1.9999 0.0 0
M  V30 21 C 0.0 -0.5 0.0 0
M  V30 22 C -0.9135 -0.0932 0.0 0
M  V30 23 C -0.1045 -1.4945 0.0 0
M  V30 24 C -1.5826 -0.8364 0.0 0
M  V30 25 C -1.2225 0.8577 0.0 0
M  V30 26 N -1.0826 -1.7024 0.0 0
M  V30 27 C -2.5608 -0.6284 0.0 0
M  V30 28 C -2.2007 1.0657 0.0 0
M  V30 29 C -2.8698 0.3225 0.0 0
M  V30 END ATOM
M  V30 BEGIN BOND
M  V30 1 1 1 2
M  V30 2 2 2 3
M  V30 3 1 2 4
M  V30 4 1 3 5
M  V30 5 1 3 6
M  V30 6 2 4 7
M  V30 7 1 5 8
M  V30 8 2 6 9
M  V30 9 1 7 10
M  V30 10 1 8 11
M  V30 11 1 11 12
M  V30 12 1 12 13
M  V30 13 2 13 14
M  V30 14 1 13 15
M  V30 15 1 16 15 CFG=3
M  V30 16 1 16 17
M  V30 17 1 16 18
M  V30 18 2 17 19
M  V30 19 1 17 20
M  V30 20 1 18 21
M  V30 21 1 21 22
M  V30 22 2 21 23
M  V30 23 2 22 24
M  V30 24 1 22 25
M  V30 25 1 23 26
M  V30 26 1 24 27
M  V30 27 2 25 28
M  V30 28 2 27 29
M  V30 29 1 7 9
M  V30 30 1 24 26
M  V30 31 1 28 29
M  V30 END BOND
M  V30 BEGIN COLLECTION
M  V30 MDLV30/STEABS ATOMS=(1 16)
M  V30 END COLLECTION
M  V30 END CTAB
M  END
>  <Molecule ChEMBL ID>
CHEMBL4876041

>  <Smiles>
O=C(CCCOc1ccc(Cl)cc1Cl)N[C@@H](Cc1c[nH]c2ccccc12)C(=O)O

>  <IC50_nM>
2400

>  <Assay Description>
Antagonist activity at PPARgamma (unknown origin) expressed in human LNCaP cells assessed as suppression of pioglitazone-induced PPAR response element driven firefly luciferase activity measured after 24 hrs by dual luciferase reporter assay

$$$$
CHEMBL4851842
Actelion Java MolfileCreator 2.0

  0  0  0  0  0  0              0 V3000
M  V30 BEGIN CTAB
M  V30 COUNTS 29 31 0 0 0
M  V30 BEGIN ATOM
M  V30 1 Cl 7.7942 -2.0 0.0 0
M  V30 2 C 6.9282 -1.5 0.0 0
M  V30 3 C 6.9282 -0.5 0.0 0
M  V30 4 C 6.0621 -2.0 0.0 0
M  V30 5 C 6.0621 0.0 0.0 0
M  V30 6 C 5.1961 -1.5 0.0 0
M  V30 7 C 5.1961 -0.5 0.0 0
M  V30 8 C 6.0621 1.0 0.0 0
M  V30 9 N 4.3301 0.0 0.0 0
M  V30 10 O 6.9282 1.4999 0.0 0
M  V30 11 C 5.1961 1.5 0.0 0
M  V30 12 C 3.4641 -0.5 0.0 0
M  V30 13 C 5.1961 2.5 0.0 0
M  V30 14 C 4.3301 1.0 0.0 0
M  V30 15 C 2.598 0.0 0.0 0 CFG=1
M  V30 16 C 4.3301 3.0 0.0 0
M  V30 17 C 3.4641 1.5 0.0 0
M  V30 18 O 2.598 1.0 0.0 0
M  V30 19 C 1.732 -0.5 0.0 0
M  V30 20 C 3.4641 2.5 0.0 0
M  V30 21 O 0.866 0.0 0.0 0
M  V30 22 C 0.0 -0.5 0.0 0
M  V30 23 C -0.866 0.0 0.0 0
M  V30 24 C 0.0 -1.4999 0.0 0
M  V30 25 O -0.866 1.0 0.0 0
M  V30 26 C -1.732 -0.4999 0.0 0
M  V30 27 C -0.866 -1.9999 0.0 0
M  V30 28 C -1.732 1.5 0.0 0
M  V30 29 C -1.732 -1.4999 0.0 0
M  V30 END ATOM
M  V30 BEGIN BOND
M  V30 1 1 1 2
M  V30 2 2 2 3
M  V30 3 1 2 4
M  V30 4 1 3 5
M  V30 5 2 4 6
M  V30 6 2 5 7
M  V30 7 1 5 8
M  V30 8 1 7 9
M  V30 9 2 8 10
M  V30 10 1 8 11
M  V30 11 1 9 12
M  V30 12 2 11 13
M  V30 13 1 11 14
M  V30 14 1 12 15
M  V30 15 1 13 16
M  V30 16 2 14 17
M  V30 17 1 15 18 CFG=3
M  V30 18 1 15 19
M  V30 19 2 16 20
M  V30 20 1 19 21
M  V30 21 1 21 22
M  V30 22 2 22 23
M  V30 23 1 22 24
M  V30 24 1 23 25
M  V30 25 1 23 26
M  V30 26 2 24 27
M  V30 27 1 25 28
M  V30 28 2 26 29
M  V30 29 1 6 7
M  V30 30 1 17 20
M  V30 31 1 27 29
M  V30 END BOND
M  V30 BEGIN COLLECTION
M  V30 MDLV30/STEABS ATOMS=(1 15)
M  V30 END COLLECTION
M  V30 END CTAB
M  END
>  <Molecule ChEMBL ID>
CHEMBL4851842

>  <Smiles>
COc1ccccc1OC[C@H](O)CNc1ccc(Cl)cc1C(=O)c1ccccc1

>  <IC50_nM>
2400

>  <Assay Description>
Antagonist activity at PPARgamma (unknown origin) expressed in human LNCaP cells assessed as suppression of pioglitazone-induced PPAR response element driven firefly luciferase activity measured after 24 hrs by dual luciferase reporter assay

$$$$
CHEMBL371091
Actelion Java MolfileCreator 2.0

  0  0  0  0  0  0              0 V3000
M  V30 BEGIN CTAB
M  V30 COUNTS 36 39 0 0 0
M  V30 BEGIN ATOM
M  V30 1 F 10.0617 -2.0352 0.0 0
M  V30 2 C 9.3186 -2.7043 0.0 0
M  V30 3 F 9.9877 -3.4475 0.0 0
M  V30 4 F 8.5754 -3.3734 0.0 0
M  V30 5 C 8.6494 -1.9612 0.0 0
M  V30 6 O 8.9585 -1.0101 0.0 0
M  V30 7 C 7.6713 -2.1691 0.0 0
M  V30 8 C 6.9282 -1.4999 0.0 0
M  V30 9 C 7.2646 -3.0826 0.0 0
M  V30 10 C 6.0621 -2.0 0.0 0
M  V30 11 C 6.9282 -0.5 0.0 0
M  V30 12 N 6.27 -2.9781 0.0 0
M  V30 13 C 5.1961 -1.5 0.0 0
M  V30 14 C 6.0621 0.0 0.0 0
M  V30 15 C 5.1961 -0.5 0.0 0
M  V30 16 C 4.3301 -1.9999 0.0 0
M  V30 17 O 4.3301 0.0 0.0 0
M  V30 18 C 3.4641 -1.5 0.0 0
M  V30 19 C 3.4641 -0.5 0.0 0
M  V30 20 C 2.598 -1.9999 0.0 0
M  V30 21 C 2.598 0.0 0.0 0
M  V30 22 C 1.732 -0.5 0.0 0
M  V30 23 O 0.866 0.0 0.0 0
M  V30 24 C 0.0 -0.5 0.0 0
M  V30 25 C 0.0 -1.4999 0.0 0
M  V30 26 C -0.866 0.0 0.0 0
M  V30 27 C -0.866 -1.9999 0.0 0
M  V30 28 C -1.732 -0.4999 0.0 0
M  V30 29 C -1.732 -1.4999 0.0 0
M  V30 30 C -1.0739 -2.9781 0.0 0
M  V30 31 N -2.4751 -2.1691 0.0 0
M  V30 32 C -2.0684 -3.0826 0.0 0
M  V30 33 C -3.4533 -1.9612 0.0 0
M  V30 34 C -3.7623 -1.0101 0.0 0
M  V30 35 O -3.0932 -0.267 0.0 0
M  V30 36 O -4.7405 -0.8022 0.0 0
M  V30 END ATOM
M  V30 BEGIN BOND
M  V30 1 1 1 2
M  V30 2 1 2 3
M  V30 3 1 2 4
M  V30 4 1 2 5
M  V30 5 2 5 6
M  V30 6 1 5 7
M  V30 7 1 7 8
M  V30 8 2 7 9
M  V30 9 2 8 10
M  V30 10 1 8 11
M  V30 11 1 9 12
M  V30 12 1 10 13
M  V30 13 2 11 14
M  V30 14 2 13 15
M  V30 15 1 13 16
M  V30 16 1 15 17
M  V30 17 1 16 18
M  V30 18 1 17 19
M  V30 19 1 18 20
M  V30 20 1 19 21
M  V30 21 1 21 22
M  V30 22 1 22 23
M  V30 23 1 23 24
M  V30 24 2 24 25
M  V30 25 1 24 26
M  V30 26 1 25 27
M  V30 27 2 26 28
M  V30 28 2 27 29
M  V30 29 1 27 30
M  V30 30 1 29 31
M  V30 31 2 30 32
M  V30 32 1 31 33
M  V30 33 1 33 34
M  V30 34 2 34 35
M  V30 35 1 34 36
M  V30 36 1 10 12
M  V30 37 1 14 15
M  V30 38 1 28 29
M  V30 39 1 31 32
M  V30 END BOND
M  V30 END CTAB
M  END
>  <Molecule ChEMBL ID>
CHEMBL371091

>  <Smiles>
CCCc1c(OCCCOc2ccc3c(ccn3CC(=O)O)c2)ccc2c(C(=O)C(F)(F)F)c[nH]c12

>  <IC50_nM>
2405

>  <Assay Description>
Displacement of [3H]rosiglitazone from human PPAR gamma by SPA assay

$$$$
CHEMBL201653
Actelion Java MolfileCreator 2.0

  0  0  0  0  0  0              0 V3000
M  V30 BEGIN CTAB
M  V30 COUNTS 36 39 0 0 0
M  V30 BEGIN ATOM
M  V30 1 F 7.7942 -6.0 0.0 0
M  V30 2 C 7.7942 -5.0 0.0 0
M  V30 3 C 8.6602 -4.5 0.0 0
M  V30 4 C 6.9282 -4.5 0.0 0
M  V30 5 C 8.6602 -3.5 0.0 0
M  V30 6 C 6.9282 -3.5 0.0 0
M  V30 7 C 7.7942 -3.0 0.0 0
M  V30 8 C 7.7942 -2.0 0.0 0
M  V30 9 O 8.6602 -1.5 0.0 0
M  V30 10 C 6.9282 -1.5 0.0 0
M  V30 11 C 6.9282 -0.5 0.0 0
M  V30 12 C 6.0621 -2.0 0.0 0
M  V30 13 C 6.0621 0.0 0.0 0
M  V30 14 C 5.1961 -1.5 0.0 0
M  V30 15 C 5.1961 -0.5 0.0 0
M  V30 16 C 6.0621 0.9999 0.0 0
M  V30 17 O 4.3301 0.0 0.0 0
M  V30 18 C 6.9282 1.4999 0.0 0
M  V30 19 C 3.4641 -0.5 0.0 0
M  V30 20 C 6.9282 2.4999 0.0 0
M  V30 21 C 2.598 0.0 0.0 0
M  V30 22 C 1.732 -0.5 0.0 0
M  V30 23 O 0.866 0.0 0.0 0
M  V30 24 C 0.0 -0.5 0.0 0
M  V30 25 C 0.0 -1.5 0.0 0
M  V30 26 C -0.866 0.0 0.0 0
M  V30 27 C -0.866 -1.9999 0.0 0
M  V30 28 C 0.7431 -2.1691 0.0 0
M  V30 29 C -1.732 -0.4999 0.0 0
M  V30 30 N -0.6581 -2.9781 0.0 0
M  V30 31 C -1.732 -1.4999 0.0 0
M  V30 32 C 0.3364 -3.0826 0.0 0
M  V30 33 C -1.3272 -3.7212 0.0 0
M  V30 34 C -2.3053 -3.5133 0.0 0
M  V30 35 O -2.6144 -2.5623 0.0 0
M  V30 36 O -2.9745 -4.2565 0.0 0
M  V30 END ATOM
M  V30 BEGIN BOND
M  V30 1 1 1 2
M  V30 2 2 2 3
M  V30 3 1 2 4
M  V30 4 1 3 5
M  V30 5 2 4 6
M  V30 6 2 5 7
M  V30 7 1 7 8
M  V30 8 2 8 9
M  V30 9 1 8 10
M  V30 10 2 10 11
M  V30 11 1 10 12
M  V30 12 1 11 13
M  V30 13 2 12 14
M  V30 14 2 13 15
M  V30 15 1 13 16
M  V30 16 1 15 17
M  V30 17 1 16 18
M  V30 18 1 17 19
M  V30 19 1 18 20
M  V30 20 1 19 21
M  V30 21 1 21 22
M  V30 22 1 22 23
M  V30 23 1 23 24
M  V30 24 2 24 25
M  V30 25 1 24 26
M  V30 26 1 25 27
M  V30 27 1 25 28
M  V30 28 2 26 29
M  V30 29 1 27 30
M  V30 30 2 27 31
M  V30 31 2 28 32
M  V30 32 1 30 33
M  V30 33 1 33 34
M  V30 34 2 34 35
M  V30 35 1 34 36
M  V30 36 1 6 7
M  V30 37 1 14 15
M  V30 38 1 29 31
M  V30 39 1 30 32
M  V30 END BOND
M  V30 END CTAB
M  END
>  <Molecule ChEMBL ID>
CHEMBL201653

>  <Smiles>
CCCc1cc(C(=O)c2ccc(F)cc2)ccc1OCCCOc1cccc2c1ccn2CC(=O)O

>  <IC50_nM>
2409

>  <Assay Description>
Displacement of [3H]rosiglitazone from human PPAR gamma by SPA assay

$$$$
CHEMBL201653
Actelion Java MolfileCreator 2.0

  0  0  0  0  0  0              0 V3000
M  V30 BEGIN CTAB
M  V30 COUNTS 36 39 0 0 0
M  V30 BEGIN ATOM
M  V30 1 F 7.7942 -6.0 0.0 0
M  V30 2 C 7.7942 -5.0 0.0 0
M  V30 3 C 8.6602 -4.5 0.0 0
M  V30 4 C 6.9282 -4.5 0.0 0
M  V30 5 C 8.6602 -3.5 0.0 0
M  V30 6 C 6.9282 -3.5 0.0 0
M  V30 7 C 7.7942 -3.0 0.0 0
M  V30 8 C 7.7942 -2.0 0.0 0
M  V30 9 O 8.6602 -1.5 0.0 0
M  V30 10 C 6.9282 -1.5 0.0 0
M  V30 11 C 6.9282 -0.5 0.0 0
M  V30 12 C 6.0621 -2.0 0.0 0
M  V30 13 C 6.0621 0.0 0.0 0
M  V30 14 C 5.1961 -1.5 0.0 0
M  V30 15 C 5.1961 -0.5 0.0 0
M  V30 16 C 6.0621 0.9999 0.0 0
M  V30 17 O 4.3301 0.0 0.0 0
M  V30 18 C 6.9282 1.4999 0.0 0
M  V30 19 C 3.4641 -0.5 0.0 0
M  V30 20 C 6.9282 2.4999 0.0 0
M  V30 21 C 2.598 0.0 0.0 0
M  V30 22 C 1.732 -0.5 0.0 0
M  V30 23 O 0.866 0.0 0.0 0
M  V30 24 C 0.0 -0.5 0.0 0
M  V30 25 C 0.0 -1.5 0.0 0
M  V30 26 C -0.866 0.0 0.0 0
M  V30 27 C -0.866 -1.9999 0.0 0
M  V30 28 C 0.7431 -2.1691 0.0 0
M  V30 29 C -1.732 -0.4999 0.0 0
M  V30 30 N -0.6581 -2.9781 0.0 0
M  V30 31 C -1.732 -1.4999 0.0 0
M  V30 32 C 0.3364 -3.0826 0.0 0
M  V30 33 C -1.3272 -3.7212 0.0 0
M  V30 34 C -2.3053 -3.5133 0.0 0
M  V30 35 O -2.6144 -2.5623 0.0 0
M  V30 36 O -2.9745 -4.2565 0.0 0
M  V30 END ATOM
M  V30 BEGIN BOND
M  V30 1 1 1 2
M  V30 2 2 2 3
M  V30 3 1 2 4
M  V30 4 1 3 5
M  V30 5 2 4 6
M  V30 6 2 5 7
M  V30 7 1 7 8
M  V30 8 2 8 9
M  V30 9 1 8 10
M  V30 10 2 10 11
M  V30 11 1 10 12
M  V30 12 1 11 13
M  V30 13 2 12 14
M  V30 14 2 13 15
M  V30 15 1 13 16
M  V30 16 1 15 17
M  V30 17 1 16 18
M  V30 18 1 17 19
M  V30 19 1 18 20
M  V30 20 1 19 21
M  V30 21 1 21 22
M  V30 22 1 22 23
M  V30 23 1 23 24
M  V30 24 2 24 25
M  V30 25 1 24 26
M  V30 26 1 25 27
M  V30 27 1 25 28
M  V30 28 2 26 29
M  V30 29 1 27 30
M  V30 30 2 27 31
M  V30 31 2 28 32
M  V30 32 1 30 33
M  V30 33 1 33 34
M  V30 34 2 34 35
M  V30 35 1 34 36
M  V30 36 1 6 7
M  V30 37 1 14 15
M  V30 38 1 29 31
M  V30 39 1 30 32
M  V30 END BOND
M  V30 END CTAB
M  END
>  <Molecule ChEMBL ID>
CHEMBL201653

>  <Smiles>
CCCc1cc(C(=O)c2ccc(F)cc2)ccc1OCCCOc1cccc2c1ccn2CC(=O)O

>  <IC50_nM>
2409.91

>  <Assay Description>
Agonist activity at PPARgamma

$$$$
CHEMBL376051
Actelion Java MolfileCreator 2.0

  0  0  0  0  0  0              0 V3000
M  V30 BEGIN CTAB
M  V30 COUNTS 27 29 0 0 0
M  V30 BEGIN ATOM
M  V30 1 S 3.8971 0.0 0.0 0
M  V30 2 O 4.6471 1.299 0.0 0
M  V30 3 O 3.1471 1.299 0.0 0
M  V30 4 N 2.598 -0.75 0.0 0
M  V30 5 C 5.1961 -0.75 0.0 0
M  V30 6 C 1.299 0.0 0.0 0
M  V30 7 C 5.1961 -2.25 0.0 0
M  V30 8 C 6.4952 0.0 0.0 0
M  V30 9 O 1.299 1.5 0.0 0
M  V30 10 C 0.0 -0.75 0.0 0
M  V30 11 C 6.4952 -3.0 0.0 0
M  V30 12 C 7.7942 -0.75 0.0 0
M  V30 13 N -1.3703 -0.1398 0.0 0
M  V30 14 C -0.1567 -2.2417 0.0 0
M  V30 15 C 7.7942 -2.25 0.0 0
M  V30 16 C 6.4952 -4.5 0.0 0
M  V30 17 C -2.374 -1.2546 0.0 0
M  V30 18 C -1.6821 1.3273 0.0 0
M  V30 19 C -1.624 -2.5536 0.0 0
M  V30 20 F 7.9952 -4.5 0.0 0
M  V30 21 F 6.4952 -6.0 0.0 0
M  V30 22 F 4.9951 -4.5 0.0 0
M  V30 23 C -3.874 -1.2546 0.0 0
M  V30 24 C -3.1087 1.7908 0.0 0
M  V30 25 C -2.374 -3.8526 0.0 0
M  V30 26 C -4.624 -2.5536 0.0 0
M  V30 27 C -3.874 -3.8526 0.0 0
M  V30 END ATOM
M  V30 BEGIN BOND
M  V30 1 2 1 2
M  V30 2 2 1 3
M  V30 3 1 1 4
M  V30 4 1 1 5
M  V30 5 1 4 6
M  V30 6 2 5 7
M  V30 7 1 5 8
M  V30 8 2 6 9
M  V30 9 1 6 10
M  V30 10 1 7 11
M  V30 11 2 8 12
M  V30 12 1 10 13
M  V30 13 2 10 14
M  V30 14 2 11 15
M  V30 15 1 11 16
M  V30 16 1 13 17
M  V30 17 1 13 18
M  V30 18 1 14 19
M  V30 19 1 16 20
M  V30 20 1 16 21
M  V30 21 1 16 22
M  V30 22 1 17 23
M  V30 23 1 18 24
M  V30 24 1 19 25
M  V30 25 2 23 26
M  V30 26 2 25 27
M  V30 27 1 12 15
M  V30 28 2 17 19
M  V30 29 1 26 27
M  V30 END BOND
M  V30 END CTAB
M  END
>  <Molecule ChEMBL ID>
CHEMBL376051

>  <Smiles>
CCn1c(C(=O)NS(=O)(=O)c2cccc(C(F)(F)F)c2)cc2ccccc21

>  <IC50_nM>
2440

>  <Assay Description>
Displacement of Fluormone from PPAR gamma

$$$$
CHEMBL226512
Actelion Java MolfileCreator 2.0

  0  0  0  0  0  0              0 V3000
M  V30 BEGIN CTAB
M  V30 COUNTS 26 28 0 0 0
M  V30 BEGIN ATOM
M  V30 1 O 3.4641 -3.4999 0.0 0
M  V30 2 C 2.598 -2.9999 0.0 0
M  V30 3 C 2.598 -1.9999 0.0 0
M  V30 4 C 1.732 -3.5 0.0 0
M  V30 5 C 1.732 -1.5 0.0 0
M  V30 6 C 3.4641 -1.4999 0.0 0
M  V30 7 C 0.866 -2.9999 0.0 0
M  V30 8 O 0.866 -2.0 0.0 0
M  V30 9 C 1.732 -0.5 0.0 0
M  V30 10 O 4.3301 -1.9999 0.0 0
M  V30 11 C 3.4641 -0.4999 0.0 0
M  V30 12 C 0.0 -3.4999 0.0 0
M  V30 13 O 0.866 0.0 0.0 0
M  V30 14 C 2.598 0.0 0.0 0
M  V30 15 O 4.3301 0.0 0.0 0
M  V30 16 C -0.866 -2.9999 0.0 0
M  V30 17 C 0.0 -4.4999 0.0 0
M  V30 18 C 0.0 -0.5 0.0 0
M  V30 19 O 2.598 1.0 0.0 0
M  V30 20 C 4.3301 1.0 0.0 0
M  V30 21 C -1.732 -3.4999 0.0 0
M  V30 22 C -0.866 -4.9999 0.0 0
M  V30 23 C 1.732 1.5 0.0 0
M  V30 24 C -1.732 -4.4999 0.0 0
M  V30 25 O -2.598 -4.9999 0.0 0
M  V30 26 C -2.598 -5.9999 0.0 0
M  V30 END ATOM
M  V30 BEGIN BOND
M  V30 1 2 1 2
M  V30 2 1 2 3
M  V30 3 1 2 4
M  V30 4 2 3 5
M  V30 5 1 3 6
M  V30 6 2 4 7
M  V30 7 1 5 8
M  V30 8 1 5 9
M  V30 9 1 6 10
M  V30 10 2 6 11
M  V30 11 1 7 12
M  V30 12 1 9 13
M  V30 13 2 9 14
M  V30 14 1 11 15
M  V30 15 2 12 16
M  V30 16 1 12 17
M  V30 17 1 13 18
M  V30 18 1 14 19
M  V30 19 1 15 20
M  V30 20 1 16 21
M  V30 21 2 17 22
M  V30 22 1 19 23
M  V30 23 2 21 24
M  V30 24 1 24 25
M  V30 25 1 25 26
M  V30 26 1 7 8
M  V30 27 1 11 14
M  V30 28 1 22 24
M  V30 END BOND
M  V30 END CTAB
M  END
>  <Molecule ChEMBL ID>
CHEMBL226512

>  <Smiles>
COc1ccc(-c2cc(=O)c3c(O)c(OC)c(OC)c(OC)c3o2)cc1

>  <IC50_nM>
2500

>  <Assay Description>
Antagonist activity at PPARgamma (unknown origin) expressed in human LNCaP cells assessed as suppression of pioglitazone-induced PPAR response element driven firefly luciferase activity measured after 24 hrs by dual luciferase reporter assay

$$$$
CHEMBL4577891
Actelion Java MolfileCreator 2.0

  0  0  0  0  0  0              0 V3000
M  V30 BEGIN CTAB
M  V30 COUNTS 41 44 0 0 0
M  V30 BEGIN ATOM
M  V30 1 F 8.8923 12.75 0.0 0
M  V30 2 C 10.3923 12.7499 0.0 0
M  V30 3 F 10.3923 14.25 0.0 0
M  V30 4 F 11.8923 12.7499 0.0 0
M  V30 5 C 10.3923 11.25 0.0 0
M  V30 6 N 9.0932 10.5 0.0 0
M  V30 7 C 11.6913 10.4999 0.0 0
M  V30 8 C 9.0932 8.9999 0.0 0
M  V30 9 C 11.6913 8.9999 0.0 0
M  V30 10 C 10.3923 8.25 0.0 0
M  V30 11 C 7.7942 8.25 0.0 0
M  V30 12 O 12.9903 8.2499 0.0 0
M  V30 13 C 10.3923 6.75 0.0 0
M  V30 14 C 7.7942 6.75 0.0 0
M  V30 15 C 14.2894 8.9999 0.0 0
M  V30 16 C 9.0932 5.9999 0.0 0
M  V30 17 C 9.0932 4.4999 0.0 0
M  V30 18 O 7.7942 3.75 0.0 0
M  V30 19 C 7.7942 2.25 0.0 0
M  V30 20 C 6.4951 1.5 0.0 0
M  V30 21 C 9.0932 1.4999 0.0 0
M  V30 22 C 6.4951 0.0 0.0 0
M  V30 23 C 9.0932 0.0 0.0 0
M  V30 24 C 7.7942 -0.75 0.0 0
M  V30 25 C 5.1961 -0.75 0.0 0
M  V30 26 O 7.7942 -2.25 0.0 0
M  V30 27 C 3.8971 0.0 0.0 0
M  V30 28 C 6.4951 -3.0 0.0 0
M  V30 29 C 2.598 -0.75 0.0 0
M  V30 30 C 3.8971 1.4999 0.0 0
M  V30 31 C 6.4951 -4.5 0.0 0
M  V30 32 O 2.598 -2.25 0.0 0
M  V30 33 O 1.299 0.0 0.0 0
M  V30 34 C 2.598 2.2499 0.0 0
M  V30 35 C 5.1961 -5.2499 0.0 0
M  V30 36 C 7.7942 -5.25 0.0 0
M  V30 37 C 2.598 3.75 0.0 0
M  V30 38 C 5.1961 -6.7499 0.0 0
M  V30 39 C 7.7942 -6.75 0.0 0
M  V30 40 N 6.4951 -7.5 0.0 0
M  V30 41 C 6.4951 -9.0 0.0 0
M  V30 END ATOM
M  V30 BEGIN BOND
M  V30 1 1 1 2
M  V30 2 1 2 3
M  V30 3 1 2 4
M  V30 4 1 2 5
M  V30 5 2 5 6
M  V30 6 1 5 7
M  V30 7 1 6 8
M  V30 8 2 7 9
M  V30 9 1 8 10
M  V30 10 2 8 11
M  V30 11 1 9 12
M  V30 12 2 10 13
M  V30 13 1 11 14
M  V30 14 1 12 15
M  V30 15 1 13 16
M  V30 16 1 16 17
M  V30 17 1 17 18
M  V30 18 1 18 19
M  V30 19 2 19 20
M  V30 20 1 19 21
M  V30 21 1 20 22
M  V30 22 2 21 23
M  V30 23 2 22 24
M  V30 24 1 22 25
M  V30 25 1 24 26
M  V30 26 2 25 27
M  V30 27 1 26 28
M  V30 28 1 27 29
M  V30 29 1 27 30
M  V30 30 1 28 31
M  V30 31 2 29 32
M  V30 32 1 29 33
M  V30 33 1 30 34
M  V30 34 1 31 35
M  V30 35 1 31 36
M  V30 36 1 34 37
M  V30 37 1 35 38
M  V30 38 1 36 39
M  V30 39 1 38 40
M  V30 40 1 40 41
M  V30 41 1 9 10
M  V30 42 2 14 16
M  V30 43 1 23 24
M  V30 44 1 39 40
M  V30 END BOND
M  V30 END CTAB
M  END
>  <Molecule ChEMBL ID>
CHEMBL4577891

>  <Smiles>
CCC/C(=C\c1cc(OCc2ccc3nc(C(F)(F)F)cc(OC)c3c2)ccc1OCC1CCN(C)CC1)C(=O)O

>  <IC50_nM>
2500

>  <Assay Description>
Antagonist actvity in pFA-GAL4-DBD fused PPARgamma LBD (unknown origin) transfected in HEK293T cells assessed as inhibition of rosiglitazone-induced PPARgamma transactivation incubated for 24 hrs by luciferase reporter gene assay

$$$$
CHEMBL497991
Actelion Java MolfileCreator 2.0

  0  0  0  0  0  0              0 V3000
M  V30 BEGIN CTAB
M  V30 COUNTS 33 36 0 0 0
M  V30 BEGIN ATOM
M  V30 1 Cl 7.7942 2.25 0.0 0
M  V30 2 C 6.4951 1.5 0.0 0
M  V30 3 C 6.4951 0.0 0.0 0
M  V30 4 C 5.1961 2.25 0.0 0
M  V30 5 C 5.1961 -0.75 0.0 0
M  V30 6 C 3.8971 1.5 0.0 0
M  V30 7 C 3.8971 0.0 0.0 0
M  V30 8 C 5.1961 -2.25 0.0 0
M  V30 9 N 2.598 -0.75 0.0 0
M  V30 10 O 6.4951 -3.0 0.0 0
M  V30 11 O 3.8971 -3.0 0.0 0
M  V30 12 C 1.299 0.0 0.0 0
M  V30 13 O 1.299 1.5 0.0 0
M  V30 14 C 0.0 -0.75 0.0 0
M  V30 15 C -1.299 0.0 0.0 0
M  V30 16 C 0.0 -2.25 0.0 0
M  V30 17 C -2.598 -0.75 0.0 0
M  V30 18 C -1.299 -3.0 0.0 0
M  V30 19 S -3.8971 0.0 0.0 0
M  V30 20 C -2.598 -2.25 0.0 0
M  V30 21 O -3.1471 1.299 0.0 0
M  V30 22 O -4.6471 1.299 0.0 0
M  V30 23 N -5.1961 -0.75 0.0 0
M  V30 24 C -6.5664 -0.1398 0.0 0
M  V30 25 C -5.3529 -2.2417 0.0 0
M  V30 26 C -7.5701 -1.2546 0.0 0
M  V30 27 C -7.03 1.2866 0.0 0
M  V30 28 C -6.8201 -2.5536 0.0 0
M  V30 29 C -9.0373 -0.9427 0.0 0
M  V30 30 C -8.4972 1.5985 0.0 0
M  V30 31 C -9.5009 0.4838 0.0 0
M  V30 32 O -8.9607 3.0251 0.0 0
M  V30 33 C -10.4279 3.337 0.0 0
M  V30 END ATOM
M  V30 BEGIN BOND
M  V30 1 1 1 2
M  V30 2 2 2 3
M  V30 3 1 2 4
M  V30 4 1 3 5
M  V30 5 2 4 6
M  V30 6 2 5 7
M  V30 7 1 5 8
M  V30 8 1 7 9
M  V30 9 2 8 10
M  V30 10 1 8 11
M  V30 11 1 9 12
M  V30 12 2 12 13
M  V30 13 1 12 14
M  V30 14 2 14 15
M  V30 15 1 14 16
M  V30 16 1 15 17
M  V30 17 2 16 18
M  V30 18 1 17 19
M  V30 19 2 17 20
M  V30 20 2 19 21
M  V30 21 2 19 22
M  V30 22 1 19 23
M  V30 23 1 23 24
M  V30 24 1 23 25
M  V30 25 2 24 26
M  V30 26 1 24 27
M  V30 27 2 25 28
M  V30 28 1 26 29
M  V30 29 2 27 30
M  V30 30 2 29 31
M  V30 31 1 30 32
M  V30 32 1 32 33
M  V30 33 1 6 7
M  V30 34 1 18 20
M  V30 35 1 26 28
M  V30 36 1 30 31
M  V30 END BOND
M  V30 END CTAB
M  END
>  <Molecule ChEMBL ID>
CHEMBL497991

>  <Smiles>
COc1ccc2ccn(S(=O)(=O)c3cccc(C(=O)Nc4ccc(Cl)cc4C(=O)O)c3)c2c1

>  <IC50_nM>
2511.89

>  <Assay Description>
Agonist activity at PPARgamma

$$$$
CHEMBL522575
Actelion Java MolfileCreator 2.0

  0  0  0  0  0  0              0 V3000
M  V30 BEGIN CTAB
M  V30 COUNTS 32 35 0 0 0
M  V30 BEGIN ATOM
M  V30 1 S 5.1961 3.75 0.0 0
M  V30 2 O 4.4461 5.049 0.0 0
M  V30 3 O 3.6961 3.7499 0.0 0
M  V30 4 N 6.4951 4.5 0.0 0
M  V30 5 C 5.1961 2.25 0.0 0
M  V30 6 C 7.8655 3.8898 0.0 0
M  V30 7 C 6.6519 5.9917 0.0 0
M  V30 8 C 3.8971 1.5 0.0 0
M  V30 9 C 6.4951 1.5 0.0 0
M  V30 10 C 8.8692 5.0046 0.0 0
M  V30 11 C 8.329 2.4633 0.0 0
M  V30 12 C 8.1192 6.3036 0.0 0
M  V30 13 C 3.8971 0.0 0.0 0
M  V30 14 C 6.4951 0.0 0.0 0
M  V30 15 C 10.3364 4.6927 0.0 0
M  V30 16 C 9.7962 2.1514 0.0 0
M  V30 17 C 2.598 -0.75 0.0 0
M  V30 18 C 5.1961 -0.75 0.0 0
M  V30 19 C 10.7999 3.2661 0.0 0
M  V30 20 C 10.2597 0.7248 0.0 0
M  V30 21 O 2.598 -2.25 0.0 0
M  V30 22 N 1.299 0.0 0.0 0
M  V30 23 C 0.0 -0.75 0.0 0
M  V30 24 C -1.299 0.0 0.0 0
M  V30 25 C 0.0 -2.25 0.0 0
M  V30 26 C -1.299 1.5 0.0 0
M  V30 27 C -2.598 -0.75 0.0 0
M  V30 28 C -1.299 -3.0 0.0 0
M  V30 29 O 0.0 2.25 0.0 0
M  V30 30 O -2.598 2.25 0.0 0
M  V30 31 C -2.598 -2.25 0.0 0
M  V30 32 C -3.8971 -3.0 0.0 0
M  V30 END ATOM
M  V30 BEGIN BOND
M  V30 1 2 1 2
M  V30 2 2 1 3
M  V30 3 1 1 4
M  V30 4 1 1 5
M  V30 5 1 4 6
M  V30 6 1 4 7
M  V30 7 2 5 8
M  V30 8 1 5 9
M  V30 9 2 6 10
M  V30 10 1 6 11
M  V30 11 2 7 12
M  V30 12 1 8 13
M  V30 13 2 9 14
M  V30 14 1 10 15
M  V30 15 2 11 16
M  V30 16 1 13 17
M  V30 17 2 13 18
M  V30 18 2 15 19
M  V30 19 1 16 20
M  V30 20 2 17 21
M  V30 21 1 17 22
M  V30 22 1 22 23
M  V30 23 2 23 24
M  V30 24 1 23 25
M  V30 25 1 24 26
M  V30 26 1 24 27
M  V30 27 2 25 28
M  V30 28 2 26 29
M  V30 29 1 26 30
M  V30 30 2 27 31
M  V30 31 1 31 32
M  V30 32 1 10 12
M  V30 33 1 14 18
M  V30 34 1 16 19
M  V30 35 1 28 31
M  V30 END BOND
M  V30 END CTAB
M  END
>  <Molecule ChEMBL ID>
CHEMBL522575

>  <Smiles>
Cc1ccc(NC(=O)c2cccc(S(=O)(=O)n3ccc4ccc(C)cc43)c2)c(C(=O)O)c1

>  <IC50_nM>
2511.89

>  <Assay Description>
Agonist activity at PPARgamma

$$$$
CHEMBL484266
Actelion Java MolfileCreator 2.0

  0  0  0  0  0  0              0 V3000
M  V30 BEGIN CTAB
M  V30 COUNTS 32 35 0 0 0
M  V30 BEGIN ATOM
M  V30 1 Br 7.7942 2.25 0.0 0
M  V30 2 C 6.4951 1.5 0.0 0
M  V30 3 C 6.4951 0.0 0.0 0
M  V30 4 C 5.1961 2.25 0.0 0
M  V30 5 C 5.1961 -0.75 0.0 0
M  V30 6 C 3.8971 1.5 0.0 0
M  V30 7 C 3.8971 0.0 0.0 0
M  V30 8 C 5.1961 -2.25 0.0 0
M  V30 9 N 2.598 -0.75 0.0 0
M  V30 10 O 6.4951 -3.0 0.0 0
M  V30 11 O 3.8971 -3.0 0.0 0
M  V30 12 C 1.299 0.0 0.0 0
M  V30 13 O 1.299 1.5 0.0 0
M  V30 14 C 0.0 -0.75 0.0 0
M  V30 15 C -1.299 0.0 0.0 0
M  V30 16 C 0.0 -2.25 0.0 0
M  V30 17 C -2.598 -0.75 0.0 0
M  V30 18 C -1.299 -3.0 0.0 0
M  V30 19 S -3.8971 0.0 0.0 0
M  V30 20 C -2.598 -2.25 0.0 0
M  V30 21 O -3.1471 1.299 0.0 0
M  V30 22 O -4.6471 1.299 0.0 0
M  V30 23 N -5.1961 -0.75 0.0 0
M  V30 24 C -6.4951 0.0 0.0 0
M  V30 25 C -5.1961 -2.25 0.0 0
M  V30 26 C -7.7942 -0.75 0.0 0
M  V30 27 C -6.4951 -3.0 0.0 0
M  V30 28 C -7.7942 -2.25 0.0 0
M  V30 29 C -9.0932 0.0 0.0 0
M  V30 30 C -9.0932 -3.0 0.0 0
M  V30 31 C -10.3923 -0.75 0.0 0
M  V30 32 C -10.3923 -2.25 0.0 0
M  V30 END ATOM
M  V30 BEGIN BOND
M  V30 1 1 1 2
M  V30 2 2 2 3
M  V30 3 1 2 4
M  V30 4 1 3 5
M  V30 5 2 4 6
M  V30 6 2 5 7
M  V30 7 1 5 8
M  V30 8 1 7 9
M  V30 9 2 8 10
M  V30 10 1 8 11
M  V30 11 1 9 12
M  V30 12 2 12 13
M  V30 13 1 12 14
M  V30 14 2 14 15
M  V30 15 1 14 16
M  V30 16 1 15 17
M  V30 17 2 16 18
M  V30 18 1 17 19
M  V30 19 2 17 20
M  V30 20 2 19 21
M  V30 21 2 19 22
M  V30 22 1 19 23
M  V30 23 1 23 24
M  V30 24 1 23 25
M  V30 25 1 24 26
M  V30 26 1 25 27
M  V30 27 2 26 28
M  V30 28 1 26 29
M  V30 29 1 28 30
M  V30 30 2 29 31
M  V30 31 2 30 32
M  V30 32 1 6 7
M  V30 33 1 18 20
M  V30 34 1 27 28
M  V30 35 1 31 32
M  V30 END BOND
M  V30 END CTAB
M  END
>  <Molecule ChEMBL ID>
CHEMBL484266

>  <Smiles>
O=C(Nc1ccc(Br)cc1C(=O)O)c1cccc(S(=O)(=O)N2CCc3ccccc3C2)c1

>  <IC50_nM>
2511.89

>  <Assay Description>
Displacement of radiolabeled ligand from human PPARgamma by competition-binding assay

$$$$
CHEMBL1760268
Actelion Java MolfileCreator 2.0

  0  0  0  0  0  0              0 V3000
M  V30 BEGIN CTAB
M  V30 COUNTS 35 37 0 0 0
M  V30 BEGIN ATOM
M  V30 1 Cl -1.299 -7.5 0.0 0
M  V30 2 C 0.0 -6.75 0.0 0
M  V30 3 C 0.0 -5.25 0.0 0
M  V30 4 C 1.299 -7.5 0.0 0
M  V30 5 C 1.299 -4.5 0.0 0
M  V30 6 C 2.598 -6.75 0.0 0
M  V30 7 C 2.598 -5.25 0.0 0
M  V30 8 C 3.8971 -4.5 0.0 0
M  V30 9 C 3.8971 -3.0 0.0 0
M  V30 10 C 5.1961 -5.25 0.0 0
M  V30 11 C 5.1961 -2.25 0.0 0
M  V30 12 C 2.598 -2.25 0.0 0
M  V30 13 C 6.4951 -4.5 0.0 0
M  V30 14 N 5.1961 -0.75 0.0 0
M  V30 15 C 6.4951 -3.0 0.0 0
M  V30 16 S 6.4951 0.0 0.0 0
M  V30 17 C 3.8971 0.0 0.0 0
M  V30 18 O 7.2451 1.299 0.0 0
M  V30 19 O 5.7451 1.299 0.0 0
M  V30 20 C 7.7942 -0.75 0.0 0
M  V30 21 C 2.598 -0.75 0.0 0
M  V30 22 C 9.0932 0.0 0.0 0
M  V30 23 C 7.7942 -2.25 0.0 0
M  V30 24 C 1.299 0.0 0.0 0
M  V30 25 C 10.3923 -0.75 0.0 0
M  V30 26 C 9.0932 1.5 0.0 0
M  V30 27 C 9.0932 -3.0 0.0 0
M  V30 28 C 0.0 -0.75 0.0 0
M  V30 29 C 10.3923 -2.25 0.0 0
M  V30 30 C 11.6913 0.0 0.0 0
M  V30 31 O 11.6913 -3.0 0.0 0
M  V30 32 C 11.6913 -4.5 0.0 0
M  V30 33 C 12.9903 -5.25 0.0 0
M  V30 34 O 14.2894 -4.5 0.0 0
M  V30 35 O 12.9903 -6.75 0.0 0
M  V30 END ATOM
M  V30 BEGIN BOND
M  V30 1 1 1 2
M  V30 2 2 2 3
M  V30 3 1 2 4
M  V30 4 1 3 5
M  V30 5 2 4 6
M  V30 6 2 5 7
M  V30 7 1 7 8
M  V30 8 2 8 9
M  V30 9 1 8 10
M  V30 10 1 9 11
M  V30 11 1 9 12
M  V30 12 2 10 13
M  V30 13 1 11 14
M  V30 14 2 11 15
M  V30 15 1 14 16
M  V30 16 1 14 17
M  V30 17 2 16 18
M  V30 18 2 16 19
M  V30 19 1 16 20
M  V30 20 1 17 21
M  V30 21 2 20 22
M  V30 22 1 20 23
M  V30 23 1 21 24
M  V30 24 1 22 25
M  V30 25 1 22 26
M  V30 26 2 23 27
M  V30 27 1 24 28
M  V30 28 2 25 29
M  V30 29 1 25 30
M  V30 30 1 29 31
M  V30 31 1 31 32
M  V30 32 1 32 33
M  V30 33 2 33 34
M  V30 34 1 33 35
M  V30 35 1 6 7
M  V30 36 1 13 15
M  V30 37 1 27 29
M  V30 END BOND
M  V30 END CTAB
M  END
>  <Molecule ChEMBL ID>
CHEMBL1760268

>  <Smiles>
CCCCN(c1cccc(-c2ccc(Cl)cc2)c1C)S(=O)(=O)c1ccc(OCC(=O)O)c(C)c1C

>  <IC50_nM>
2511.89

>  <Assay Description>
Displacement of [3H]GW 2433 from human PPARgamma by scintillation proximity assay

$$$$
CHEMBL230731
Actelion Java MolfileCreator 2.0

  0  0  0  0  0  0              0 V3000
M  V30 BEGIN CTAB
M  V30 COUNTS 45 50 0 0 0
M  V30 BEGIN ATOM
M  V30 1 O 6.9282 1.5 0.0 0
M  V30 2 C 6.0621 1.0 0.0 0
M  V30 3 C 6.0621 0.0 0.0 0
M  V30 4 C 5.1961 1.4999 0.0 0
M  V30 5 C 5.1961 -0.5 0.0 0
M  V30 6 C 6.9282 -0.4999 0.0 0
M  V30 7 C 4.3301 0.9999 0.0 0
M  V30 8 C 5.1961 2.4999 0.0 0
M  V30 9 N 4.3301 0.0 0.0 0
M  V30 10 C 5.1961 -1.4999 0.0 0
M  V30 11 C 6.9282 -1.4999 0.0 0
M  V30 12 C 3.4641 1.4999 0.0 0
M  V30 13 C 4.3301 2.9999 0.0 0
M  V30 14 C 3.4641 -0.5 0.0 0 CFG=2
M  V30 15 C 6.0621 -1.9999 0.0 0
M  V30 16 C 3.4641 2.4999 0.0 0
M  V30 17 C 2.598 0.0 0.0 0
M  V30 18 C 3.4641 -1.5 0.0 0
M  V30 19 N 1.732 -0.5 0.0 0
M  V30 20 C 2.598 -2.0 0.0 0
M  V30 21 C 0.866 0.0 0.0 0
M  V30 22 C 2.598 -3.0 0.0 0
M  V30 23 C 1.732 -1.5 0.0 0
M  V30 24 O 0.866 1.0 0.0 0
M  V30 25 C 0.0 -0.5 0.0 0
M  V30 26 C 1.732 -3.5 0.0 0
M  V30 27 C 0.866 -2.0 0.0 0
M  V30 28 C -1.0 -0.4999 0.0 0
M  V30 29 C -0.5 -1.366 0.0 0
M  V30 30 C 0.866 -3.0 0.0 0
M  V30 31 O 0.0 -3.5 0.0 0
M  V30 32 C -0.866 -3.0 0.0 0
M  V30 33 C -1.732 -3.5 0.0 0
M  V30 34 C -2.598 -3.0 0.0 0
M  V30 35 N -3.5116 -3.4067 0.0 0
M  V30 36 C -2.7026 -2.0054 0.0 0
M  V30 37 C -4.1807 -2.6635 0.0 0
M  V30 38 O -3.6807 -1.7975 0.0 0
M  V30 39 C -1.9594 -1.3363 0.0 0
M  V30 40 C -5.1752 -2.7681 0.0 0
M  V30 41 C -5.582 -3.6816 0.0 0
M  V30 42 C -5.763 -1.9591 0.0 0
M  V30 43 C -6.5765 -3.7861 0.0 0
M  V30 44 C -6.7575 -2.0636 0.0 0
M  V30 45 C -7.1643 -2.9771 0.0 0
M  V30 END ATOM
M  V30 BEGIN BOND
M  V30 1 2 1 2
M  V30 2 1 2 3
M  V30 3 1 2 4
M  V30 4 2 3 5
M  V30 5 1 3 6
M  V30 6 2 4 7
M  V30 7 1 4 8
M  V30 8 1 5 9
M  V30 9 1 5 10
M  V30 10 2 6 11
M  V30 11 1 7 12
M  V30 12 2 8 13
M  V30 13 1 14 9 CFG=1
M  V30 14 2 10 15
M  V30 15 2 12 16
M  V30 16 1 14 17
M  V30 17 1 14 18
M  V30 18 1 17 19
M  V30 19 1 18 20
M  V30 20 1 19 21
M  V30 21 2 20 22
M  V30 22 1 20 23
M  V30 23 2 21 24
M  V30 24 1 21 25
M  V30 25 1 22 26
M  V30 26 2 23 27
M  V30 27 1 25 28
M  V30 28 1 25 29
M  V30 29 2 26 30
M  V30 30 1 30 31
M  V30 31 1 31 32
M  V30 32 1 32 33
M  V30 33 1 33 34
M  V30 34 1 34 35
M  V30 35 2 34 36
M  V30 36 2 35 37
M  V30 37 1 36 38
M  V30 38 1 36 39
M  V30 39 1 37 40
M  V30 40 2 40 41
M  V30 41 1 40 42
M  V30 42 1 41 43
M  V30 43 2 42 44
M  V30 44 2 43 45
M  V30 45 1 11 15
M  V30 46 1 13 16
M  V30 47 1 27 30
M  V30 48 1 28 29
M  V30 49 1 37 38
M  V30 50 1 44 45
M  V30 END BOND
M  V30 BEGIN COLLECTION
M  V30 MDLV30/STEABS ATOMS=(1 14)
M  V30 END COLLECTION
M  V30 END CTAB
M  END
>  <Molecule ChEMBL ID>
CHEMBL230731

>  <Smiles>
Cc1oc(-c2ccccc2)nc1CCOc1ccc(C[C@@H](CNC(=O)C2CC2)Nc2ccccc2C(=O)c2ccccc2)cc1

>  <IC50_nM>
2511.89

>  <Assay Description>
Inhibition of BRL-49653 stimulated human PPARgamma transactivation in CV-1 cells by GAL4 reporter assay

$$$$
CHEMBL484266
Actelion Java MolfileCreator 2.0

  0  0  0  0  0  0              0 V3000
M  V30 BEGIN CTAB
M  V30 COUNTS 32 35 0 0 0
M  V30 BEGIN ATOM
M  V30 1 Br 7.7942 2.25 0.0 0
M  V30 2 C 6.4951 1.5 0.0 0
M  V30 3 C 6.4951 0.0 0.0 0
M  V30 4 C 5.1961 2.25 0.0 0
M  V30 5 C 5.1961 -0.75 0.0 0
M  V30 6 C 3.8971 1.5 0.0 0
M  V30 7 C 3.8971 0.0 0.0 0
M  V30 8 C 5.1961 -2.25 0.0 0
M  V30 9 N 2.598 -0.75 0.0 0
M  V30 10 O 6.4951 -3.0 0.0 0
M  V30 11 O 3.8971 -3.0 0.0 0
M  V30 12 C 1.299 0.0 0.0 0
M  V30 13 O 1.299 1.5 0.0 0
M  V30 14 C 0.0 -0.75 0.0 0
M  V30 15 C -1.299 0.0 0.0 0
M  V30 16 C 0.0 -2.25 0.0 0
M  V30 17 C -2.598 -0.75 0.0 0
M  V30 18 C -1.299 -3.0 0.0 0
M  V30 19 S -3.8971 0.0 0.0 0
M  V30 20 C -2.598 -2.25 0.0 0
M  V30 21 O -3.1471 1.299 0.0 0
M  V30 22 O -4.6471 1.299 0.0 0
M  V30 23 N -5.1961 -0.75 0.0 0
M  V30 24 C -6.4951 0.0 0.0 0
M  V30 25 C -5.1961 -2.25 0.0 0
M  V30 26 C -7.7942 -0.75 0.0 0
M  V30 27 C -6.4951 -3.0 0.0 0
M  V30 28 C -7.7942 -2.25 0.0 0
M  V30 29 C -9.0932 0.0 0.0 0
M  V30 30 C -9.0932 -3.0 0.0 0
M  V30 31 C -10.3923 -0.75 0.0 0
M  V30 32 C -10.3923 -2.25 0.0 0
M  V30 END ATOM
M  V30 BEGIN BOND
M  V30 1 1 1 2
M  V30 2 2 2 3
M  V30 3 1 2 4
M  V30 4 1 3 5
M  V30 5 2 4 6
M  V30 6 2 5 7
M  V30 7 1 5 8
M  V30 8 1 7 9
M  V30 9 2 8 10
M  V30 10 1 8 11
M  V30 11 1 9 12
M  V30 12 2 12 13
M  V30 13 1 12 14
M  V30 14 2 14 15
M  V30 15 1 14 16
M  V30 16 1 15 17
M  V30 17 2 16 18
M  V30 18 1 17 19
M  V30 19 2 17 20
M  V30 20 2 19 21
M  V30 21 2 19 22
M  V30 22 1 19 23
M  V30 23 1 23 24
M  V30 24 1 23 25
M  V30 25 1 24 26
M  V30 26 1 25 27
M  V30 27 2 26 28
M  V30 28 1 26 29
M  V30 29 1 28 30
M  V30 30 2 29 31
M  V30 31 2 30 32
M  V30 32 1 6 7
M  V30 33 1 18 20
M  V30 34 1 27 28
M  V30 35 1 31 32
M  V30 END BOND
M  V30 END CTAB
M  END
>  <Molecule ChEMBL ID>
CHEMBL484266

>  <Smiles>
O=C(Nc1ccc(Br)cc1C(=O)O)c1cccc(S(=O)(=O)N2CCc3ccccc3C2)c1

>  <IC50_nM>
2511.89

>  <Assay Description>
Agonist activity at PPARgamma

$$$$
CHEMBL395527
Actelion Java MolfileCreator 2.0

  0  0  0  0  0  0              0 V3000
M  V30 BEGIN CTAB
M  V30 COUNTS 45 49 0 0 0
M  V30 BEGIN ATOM
M  V30 1 O 8.6602 1.5 0.0 0
M  V30 2 C 7.7942 1.0 0.0 0
M  V30 3 C 7.7942 0.0 0.0 0
M  V30 4 C 6.9282 1.4999 0.0 0
M  V30 5 C 6.9282 -0.5 0.0 0
M  V30 6 C 8.6602 -0.4999 0.0 0
M  V30 7 C 6.0621 0.9999 0.0 0
M  V30 8 C 6.9282 2.4999 0.0 0
M  V30 9 N 6.0621 0.0 0.0 0
M  V30 10 C 6.9282 -1.4999 0.0 0
M  V30 11 C 8.6602 -1.4999 0.0 0
M  V30 12 C 5.1961 1.4999 0.0 0
M  V30 13 C 6.0621 2.9999 0.0 0
M  V30 14 C 5.1961 -0.5 0.0 0 CFG=2
M  V30 15 C 7.7942 -1.9999 0.0 0
M  V30 16 C 5.1961 2.4999 0.0 0
M  V30 17 C 4.3301 0.0 0.0 0
M  V30 18 C 5.1961 -1.5 0.0 0
M  V30 19 N 3.4641 -0.5 0.0 0
M  V30 20 C 4.3301 -1.9999 0.0 0
M  V30 21 C 2.598 0.0 0.0 0
M  V30 22 C 4.3301 -2.9999 0.0 0
M  V30 23 C 3.4641 -1.4999 0.0 0
M  V30 24 O 2.598 1.0 0.0 0
M  V30 25 C 1.732 -0.5 0.0 0
M  V30 26 C 3.4641 -3.4999 0.0 0
M  V30 27 C 2.598 -1.9999 0.0 0
M  V30 28 C 0.866 0.0 0.0 0
M  V30 29 C 2.598 -2.9999 0.0 0
M  V30 30 C 0.0 -0.5 0.0 0
M  V30 31 O 1.732 -3.4999 0.0 0
M  V30 32 C 0.866 -2.9999 0.0 0
M  V30 33 C 0.0 -3.4999 0.0 0
M  V30 34 C -0.866 -2.9999 0.0 0
M  V30 35 N -1.7795 -3.4067 0.0 0
M  V30 36 C -0.9705 -2.0054 0.0 0
M  V30 37 C -2.4487 -2.6635 0.0 0
M  V30 38 O -1.9487 -1.7975 0.0 0
M  V30 39 C -0.2274 -1.3363 0.0 0
M  V30 40 C -3.4432 -2.7681 0.0 0
M  V30 41 C -3.8499 -3.6816 0.0 0
M  V30 42 C -4.031 -1.9591 0.0 0
M  V30 43 C -4.8444 -3.7861 0.0 0
M  V30 44 C -5.0255 -2.0636 0.0 0
M  V30 45 C -5.4322 -2.9771 0.0 0
M  V30 END ATOM
M  V30 BEGIN BOND
M  V30 1 2 1 2
M  V30 2 1 2 3
M  V30 3 1 2 4
M  V30 4 2 3 5
M  V30 5 1 3 6
M  V30 6 2 4 7
M  V30 7 1 4 8
M  V30 8 1 5 9
M  V30 9 1 5 10
M  V30 10 2 6 11
M  V30 11 1 7 12
M  V30 12 2 8 13
M  V30 13 1 14 9 CFG=1
M  V30 14 2 10 15
M  V30 15 2 12 16
M  V30 16 1 14 17
M  V30 17 1 14 18
M  V30 18 1 17 19
M  V30 19 1 18 20
M  V30 20 1 19 21
M  V30 21 2 20 22
M  V30 22 1 20 23
M  V30 23 2 21 24
M  V30 24 1 21 25
M  V30 25 1 22 26
M  V30 26 2 23 27
M  V30 27 1 25 28
M  V30 28 2 26 29
M  V30 29 1 28 30
M  V30 30 1 29 31
M  V30 31 1 31 32
M  V30 32 1 32 33
M  V30 33 1 33 34
M  V30 34 1 34 35
M  V30 35 2 34 36
M  V30 36 2 35 37
M  V30 37 1 36 38
M  V30 38 1 36 39
M  V30 39 1 37 40
M  V30 40 2 40 41
M  V30 41 1 40 42
M  V30 42 1 41 43
M  V30 43 2 42 44
M  V30 44 2 43 45
M  V30 45 1 11 15
M  V30 46 1 13 16
M  V30 47 1 27 29
M  V30 48 1 37 38
M  V30 49 1 44 45
M  V30 END BOND
M  V30 BEGIN COLLECTION
M  V30 MDLV30/STEABS ATOMS=(1 14)
M  V30 END COLLECTION
M  V30 END CTAB
M  END
>  <Molecule ChEMBL ID>
CHEMBL395527

>  <Smiles>
CCCC(=O)NC[C@H](Cc1ccc(OCCc2nc(-c3ccccc3)oc2C)cc1)Nc1ccccc1C(=O)c1ccccc1

>  <IC50_nM>
2511.89

>  <Assay Description>
Inhibition of BRL-49653 stimulated human PPARgamma transactivation in CV-1 cells by GAL4 reporter assay

$$$$
CHEMBL522575
Actelion Java MolfileCreator 2.0

  0  0  0  0  0  0              0 V3000
M  V30 BEGIN CTAB
M  V30 COUNTS 32 35 0 0 0
M  V30 BEGIN ATOM
M  V30 1 S 5.1961 3.75 0.0 0
M  V30 2 O 4.4461 5.049 0.0 0
M  V30 3 O 3.6961 3.7499 0.0 0
M  V30 4 N 6.4951 4.5 0.0 0
M  V30 5 C 5.1961 2.25 0.0 0
M  V30 6 C 7.8655 3.8898 0.0 0
M  V30 7 C 6.6519 5.9917 0.0 0
M  V30 8 C 3.8971 1.5 0.0 0
M  V30 9 C 6.4951 1.5 0.0 0
M  V30 10 C 8.8692 5.0046 0.0 0
M  V30 11 C 8.329 2.4633 0.0 0
M  V30 12 C 8.1192 6.3036 0.0 0
M  V30 13 C 3.8971 0.0 0.0 0
M  V30 14 C 6.4951 0.0 0.0 0
M  V30 15 C 10.3364 4.6927 0.0 0
M  V30 16 C 9.7962 2.1514 0.0 0
M  V30 17 C 2.598 -0.75 0.0 0
M  V30 18 C 5.1961 -0.75 0.0 0
M  V30 19 C 10.7999 3.2661 0.0 0
M  V30 20 C 10.2597 0.7248 0.0 0
M  V30 21 O 2.598 -2.25 0.0 0
M  V30 22 N 1.299 0.0 0.0 0
M  V30 23 C 0.0 -0.75 0.0 0
M  V30 24 C -1.299 0.0 0.0 0
M  V30 25 C 0.0 -2.25 0.0 0
M  V30 26 C -1.299 1.5 0.0 0
M  V30 27 C -2.598 -0.75 0.0 0
M  V30 28 C -1.299 -3.0 0.0 0
M  V30 29 O 0.0 2.25 0.0 0
M  V30 30 O -2.598 2.25 0.0 0
M  V30 31 C -2.598 -2.25 0.0 0
M  V30 32 C -3.8971 -3.0 0.0 0
M  V30 END ATOM
M  V30 BEGIN BOND
M  V30 1 2 1 2
M  V30 2 2 1 3
M  V30 3 1 1 4
M  V30 4 1 1 5
M  V30 5 1 4 6
M  V30 6 1 4 7
M  V30 7 2 5 8
M  V30 8 1 5 9
M  V30 9 2 6 10
M  V30 10 1 6 11
M  V30 11 2 7 12
M  V30 12 1 8 13
M  V30 13 2 9 14
M  V30 14 1 10 15
M  V30 15 2 11 16
M  V30 16 1 13 17
M  V30 17 2 13 18
M  V30 18 2 15 19
M  V30 19 1 16 20
M  V30 20 2 17 21
M  V30 21 1 17 22
M  V30 22 1 22 23
M  V30 23 2 23 24
M  V30 24 1 23 25
M  V30 25 1 24 26
M  V30 26 1 24 27
M  V30 27 2 25 28
M  V30 28 2 26 29
M  V30 29 1 26 30
M  V30 30 2 27 31
M  V30 31 1 31 32
M  V30 32 1 10 12
M  V30 33 1 14 18
M  V30 34 1 16 19
M  V30 35 1 28 31
M  V30 END BOND
M  V30 END CTAB
M  END
>  <Molecule ChEMBL ID>
CHEMBL522575

>  <Smiles>
Cc1ccc(NC(=O)c2cccc(S(=O)(=O)n3ccc4ccc(C)cc43)c2)c(C(=O)O)c1

>  <IC50_nM>
2511.89

>  <Assay Description>
Displacement of radiolabeled ligand from human PPARgamma by competition-binding assay

$$$$
CHEMBL497991
Actelion Java MolfileCreator 2.0

  0  0  0  0  0  0              0 V3000
M  V30 BEGIN CTAB
M  V30 COUNTS 33 36 0 0 0
M  V30 BEGIN ATOM
M  V30 1 Cl 7.7942 2.25 0.0 0
M  V30 2 C 6.4951 1.5 0.0 0
M  V30 3 C 6.4951 0.0 0.0 0
M  V30 4 C 5.1961 2.25 0.0 0
M  V30 5 C 5.1961 -0.75 0.0 0
M  V30 6 C 3.8971 1.5 0.0 0
M  V30 7 C 3.8971 0.0 0.0 0
M  V30 8 C 5.1961 -2.25 0.0 0
M  V30 9 N 2.598 -0.75 0.0 0
M  V30 10 O 6.4951 -3.0 0.0 0
M  V30 11 O 3.8971 -3.0 0.0 0
M  V30 12 C 1.299 0.0 0.0 0
M  V30 13 O 1.299 1.5 0.0 0
M  V30 14 C 0.0 -0.75 0.0 0
M  V30 15 C -1.299 0.0 0.0 0
M  V30 16 C 0.0 -2.25 0.0 0
M  V30 17 C -2.598 -0.75 0.0 0
M  V30 18 C -1.299 -3.0 0.0 0
M  V30 19 S -3.8971 0.0 0.0 0
M  V30 20 C -2.598 -2.25 0.0 0
M  V30 21 O -3.1471 1.299 0.0 0
M  V30 22 O -4.6471 1.299 0.0 0
M  V30 23 N -5.1961 -0.75 0.0 0
M  V30 24 C -6.5664 -0.1398 0.0 0
M  V30 25 C -5.3529 -2.2417 0.0 0
M  V30 26 C -7.5701 -1.2546 0.0 0
M  V30 27 C -7.03 1.2866 0.0 0
M  V30 28 C -6.8201 -2.5536 0.0 0
M  V30 29 C -9.0373 -0.9427 0.0 0
M  V30 30 C -8.4972 1.5985 0.0 0
M  V30 31 C -9.5009 0.4838 0.0 0
M  V30 32 O -8.9607 3.0251 0.0 0
M  V30 33 C -10.4279 3.337 0.0 0
M  V30 END ATOM
M  V30 BEGIN BOND
M  V30 1 1 1 2
M  V30 2 2 2 3
M  V30 3 1 2 4
M  V30 4 1 3 5
M  V30 5 2 4 6
M  V30 6 2 5 7
M  V30 7 1 5 8
M  V30 8 1 7 9
M  V30 9 2 8 10
M  V30 10 1 8 11
M  V30 11 1 9 12
M  V30 12 2 12 13
M  V30 13 1 12 14
M  V30 14 2 14 15
M  V30 15 1 14 16
M  V30 16 1 15 17
M  V30 17 2 16 18
M  V30 18 1 17 19
M  V30 19 2 17 20
M  V30 20 2 19 21
M  V30 21 2 19 22
M  V30 22 1 19 23
M  V30 23 1 23 24
M  V30 24 1 23 25
M  V30 25 2 24 26
M  V30 26 1 24 27
M  V30 27 2 25 28
M  V30 28 1 26 29
M  V30 29 2 27 30
M  V30 30 2 29 31
M  V30 31 1 30 32
M  V30 32 1 32 33
M  V30 33 1 6 7
M  V30 34 1 18 20
M  V30 35 1 26 28
M  V30 36 1 30 31
M  V30 END BOND
M  V30 END CTAB
M  END
>  <Molecule ChEMBL ID>
CHEMBL497991

>  <Smiles>
COc1ccc2ccn(S(=O)(=O)c3cccc(C(=O)Nc4ccc(Cl)cc4C(=O)O)c3)c2c1

>  <IC50_nM>
2511.89

>  <Assay Description>
Displacement of radiolabeled ligand from human PPARgamma by competition-binding assay

$$$$
CHEMBL498171
Actelion Java MolfileCreator 2.0

  0  0  0  0  0  0              0 V3000
M  V30 BEGIN CTAB
M  V30 COUNTS 32 35 0 0 0
M  V30 BEGIN ATOM
M  V30 1 S 5.1961 3.75 0.0 0
M  V30 2 O 4.4461 5.049 0.0 0
M  V30 3 O 3.6961 3.7499 0.0 0
M  V30 4 N 6.4951 4.5 0.0 0
M  V30 5 C 5.1961 2.25 0.0 0
M  V30 6 C 7.8655 3.8898 0.0 0
M  V30 7 C 6.6519 5.9917 0.0 0
M  V30 8 C 3.8971 1.5 0.0 0
M  V30 9 C 6.4951 1.5 0.0 0
M  V30 10 C 8.8692 5.0046 0.0 0
M  V30 11 C 8.329 2.4633 0.0 0
M  V30 12 C 8.1192 6.3036 0.0 0
M  V30 13 C 3.8971 0.0 0.0 0
M  V30 14 C 6.4951 0.0 0.0 0
M  V30 15 C 10.3364 4.6927 0.0 0
M  V30 16 C 9.7962 2.1514 0.0 0
M  V30 17 C 2.598 -0.75 0.0 0
M  V30 18 C 5.1961 -0.75 0.0 0
M  V30 19 C 10.7999 3.2661 0.0 0
M  V30 20 O 2.598 -2.25 0.0 0
M  V30 21 N 1.299 0.0 0.0 0
M  V30 22 C 12.2671 2.9542 0.0 0
M  V30 23 C 0.0 -0.75 0.0 0
M  V30 24 C -1.299 0.0 0.0 0
M  V30 25 C 0.0 -2.25 0.0 0
M  V30 26 C -1.299 1.5 0.0 0
M  V30 27 C -2.598 -0.75 0.0 0
M  V30 28 C -1.299 -3.0 0.0 0
M  V30 29 O 0.0 2.25 0.0 0
M  V30 30 O -2.598 2.25 0.0 0
M  V30 31 C -2.598 -2.25 0.0 0
M  V30 32 C -3.8971 -3.0 0.0 0
M  V30 END ATOM
M  V30 BEGIN BOND
M  V30 1 2 1 2
M  V30 2 2 1 3
M  V30 3 1 1 4
M  V30 4 1 1 5
M  V30 5 1 4 6
M  V30 6 1 4 7
M  V30 7 2 5 8
M  V30 8 1 5 9
M  V30 9 2 6 10
M  V30 10 1 6 11
M  V30 11 2 7 12
M  V30 12 1 8 13
M  V30 13 2 9 14
M  V30 14 1 10 15
M  V30 15 2 11 16
M  V30 16 1 13 17
M  V30 17 2 13 18
M  V30 18 2 15 19
M  V30 19 2 17 20
M  V30 20 1 17 21
M  V30 21 1 19 22
M  V30 22 1 21 23
M  V30 23 2 23 24
M  V30 24 1 23 25
M  V30 25 1 24 26
M  V30 26 1 24 27
M  V30 27 2 25 28
M  V30 28 2 26 29
M  V30 29 1 26 30
M  V30 30 2 27 31
M  V30 31 1 31 32
M  V30 32 1 10 12
M  V30 33 1 14 18
M  V30 34 1 16 19
M  V30 35 1 28 31
M  V30 END BOND
M  V30 END CTAB
M  END
>  <Molecule ChEMBL ID>
CHEMBL498171

>  <Smiles>
Cc1ccc(NC(=O)c2cccc(S(=O)(=O)n3ccc4cc(C)ccc43)c2)c(C(=O)O)c1

>  <IC50_nM>
2511.89

>  <Assay Description>
Agonist activity at PPARgamma

$$$$
CHEMBL498171
Actelion Java MolfileCreator 2.0

  0  0  0  0  0  0              0 V3000
M  V30 BEGIN CTAB
M  V30 COUNTS 32 35 0 0 0
M  V30 BEGIN ATOM
M  V30 1 S 5.1961 3.75 0.0 0
M  V30 2 O 4.4461 5.049 0.0 0
M  V30 3 O 3.6961 3.7499 0.0 0
M  V30 4 N 6.4951 4.5 0.0 0
M  V30 5 C 5.1961 2.25 0.0 0
M  V30 6 C 7.8655 3.8898 0.0 0
M  V30 7 C 6.6519 5.9917 0.0 0
M  V30 8 C 3.8971 1.5 0.0 0
M  V30 9 C 6.4951 1.5 0.0 0
M  V30 10 C 8.8692 5.0046 0.0 0
M  V30 11 C 8.329 2.4633 0.0 0
M  V30 12 C 8.1192 6.3036 0.0 0
M  V30 13 C 3.8971 0.0 0.0 0
M  V30 14 C 6.4951 0.0 0.0 0
M  V30 15 C 10.3364 4.6927 0.0 0
M  V30 16 C 9.7962 2.1514 0.0 0
M  V30 17 C 2.598 -0.75 0.0 0
M  V30 18 C 5.1961 -0.75 0.0 0
M  V30 19 C 10.7999 3.2661 0.0 0
M  V30 20 O 2.598 -2.25 0.0 0
M  V30 21 N 1.299 0.0 0.0 0
M  V30 22 C 12.2671 2.9542 0.0 0
M  V30 23 C 0.0 -0.75 0.0 0
M  V30 24 C -1.299 0.0 0.0 0
M  V30 25 C 0.0 -2.25 0.0 0
M  V30 26 C -1.299 1.5 0.0 0
M  V30 27 C -2.598 -0.75 0.0 0
M  V30 28 C -1.299 -3.0 0.0 0
M  V30 29 O 0.0 2.25 0.0 0
M  V30 30 O -2.598 2.25 0.0 0
M  V30 31 C -2.598 -2.25 0.0 0
M  V30 32 C -3.8971 -3.0 0.0 0
M  V30 END ATOM
M  V30 BEGIN BOND
M  V30 1 2 1 2
M  V30 2 2 1 3
M  V30 3 1 1 4
M  V30 4 1 1 5
M  V30 5 1 4 6
M  V30 6 1 4 7
M  V30 7 2 5 8
M  V30 8 1 5 9
M  V30 9 2 6 10
M  V30 10 1 6 11
M  V30 11 2 7 12
M  V30 12 1 8 13
M  V30 13 2 9 14
M  V30 14 1 10 15
M  V30 15 2 11 16
M  V30 16 1 13 17
M  V30 17 2 13 18
M  V30 18 2 15 19
M  V30 19 2 17 20
M  V30 20 1 17 21
M  V30 21 1 19 22
M  V30 22 1 21 23
M  V30 23 2 23 24
M  V30 24 1 23 25
M  V30 25 1 24 26
M  V30 26 1 24 27
M  V30 27 2 25 28
M  V30 28 2 26 29
M  V30 29 1 26 30
M  V30 30 2 27 31
M  V30 31 1 31 32
M  V30 32 1 10 12
M  V30 33 1 14 18
M  V30 34 1 16 19
M  V30 35 1 28 31
M  V30 END BOND
M  V30 END CTAB
M  END
>  <Molecule ChEMBL ID>
CHEMBL498171

>  <Smiles>
Cc1ccc(NC(=O)c2cccc(S(=O)(=O)n3ccc4cc(C)ccc43)c2)c(C(=O)O)c1

>  <IC50_nM>
2511.89

>  <Assay Description>
Displacement of radiolabeled ligand from human PPARgamma by competition-binding assay

$$$$
CHEMBL256134
Actelion Java MolfileCreator 2.0

  0  0  0  0  0  0              0 V3000
M  V30 BEGIN CTAB
M  V30 COUNTS 38 41 0 0 0
M  V30 BEGIN ATOM
M  V30 1 O 6.0621 -3.0 0.0 0
M  V30 2 C 5.1961 -3.5 0.0 0
M  V30 3 O 5.1961 -4.5 0.0 0
M  V30 4 N 4.3301 -3.0 0.0 0
M  V30 5 C 4.3301 -5.0 0.0 0
M  V30 6 C 3.4641 -3.5 0.0 0
M  V30 7 C 4.3301 -2.0 0.0 0
M  V30 8 C 4.3301 -6.0 0.0 0
M  V30 9 C 2.598 -3.0 0.0 0
M  V30 10 C 3.4641 -1.5 0.0 0
M  V30 11 C 5.1961 -6.5 0.0 0
M  V30 12 C 3.4641 -6.5 0.0 0
M  V30 13 C 2.598 -2.0 0.0 0
M  V30 14 C 1.732 -3.5 0.0 0
M  V30 15 C 1.732 -1.5 0.0 0
M  V30 16 C 1.732 -4.5 0.0 0
M  V30 17 O 0.866 -2.0 0.0 0
M  V30 18 O 1.732 -0.5 0.0 0
M  V30 19 C 0.866 -5.0 0.0 0
M  V30 20 C 2.598 -4.9999 0.0 0
M  V30 21 C 0.866 -5.9999 0.0 0
M  V30 22 C 2.598 -5.9999 0.0 0
M  V30 23 O 0.0 -6.5 0.0 0
M  V30 24 C 1.732 -6.4999 0.0 0
M  V30 25 C 0.0 -7.5 0.0 0
M  V30 26 C -0.866 -7.9999 0.0 0
M  V30 27 C -0.866 -9.0 0.0 0
M  V30 28 N -1.675 -9.5877 0.0 0
M  V30 29 C -0.057 -9.5877 0.0 0
M  V30 30 C -1.366 -10.5388 0.0 0
M  V30 31 O -0.366 -10.5388 0.0 0
M  V30 32 C 0.894 -9.2787 0.0 0
M  V30 33 C -1.9538 -11.3478 0.0 0
M  V30 34 C -2.9483 -11.2433 0.0 0
M  V30 35 C -1.547 -12.2614 0.0 0
M  V30 36 C -3.5361 -12.0523 0.0 0
M  V30 37 C -2.1348 -13.0704 0.0 0
M  V30 38 C -3.1293 -12.9658 0.0 0
M  V30 END ATOM
M  V30 BEGIN BOND
M  V30 1 2 1 2
M  V30 2 1 2 3
M  V30 3 1 2 4
M  V30 4 1 3 5
M  V30 5 1 4 6
M  V30 6 1 4 7
M  V30 7 1 5 8
M  V30 8 1 6 9
M  V30 9 1 7 10
M  V30 10 1 8 11
M  V30 11 1 8 12
M  V30 12 2 9 13
M  V30 13 1 9 14
M  V30 14 1 13 15
M  V30 15 1 14 16
M  V30 16 2 15 17
M  V30 17 1 15 18
M  V30 18 2 16 19
M  V30 19 1 16 20
M  V30 20 1 19 21
M  V30 21 2 20 22
M  V30 22 1 21 23
M  V30 23 2 21 24
M  V30 24 1 23 25
M  V30 25 1 25 26
M  V30 26 1 26 27
M  V30 27 1 27 28
M  V30 28 2 27 29
M  V30 29 2 28 30
M  V30 30 1 29 31
M  V30 31 1 29 32
M  V30 32 1 30 33
M  V30 33 2 33 34
M  V30 34 1 33 35
M  V30 35 1 34 36
M  V30 36 2 35 37
M  V30 37 2 36 38
M  V30 38 1 10 13
M  V30 39 1 22 24
M  V30 40 1 30 31
M  V30 41 1 37 38
M  V30 END BOND
M  V30 END CTAB
M  END
>  <Molecule ChEMBL ID>
CHEMBL256134

>  <Smiles>
Cc1oc(-c2ccccc2)nc1CCOc1cccc(CC2=C(C(=O)O)CCN(C(=O)OCC(C)C)C2)c1

>  <IC50_nM>
2560

>  <Assay Description>
Binding affinity at human PPARalpha by fluorescence polarization

$$$$
CHEMBL66206
Actelion Java MolfileCreator 2.0

  0  0  0  0  0  0              0 V3000
M  V30 BEGIN CTAB
M  V30 COUNTS 28 30 0 0 0
M  V30 BEGIN ATOM
M  V30 1 O 10.3923 -6.75 0.0 0
M  V30 2 C 10.3923 -5.25 0.0 0
M  V30 3 O 11.6913 -4.5 0.0 0
M  V30 4 C 9.0932 -4.5 0.0 0
M  V30 5 O 9.0932 -3.0 0.0 0
M  V30 6 C 7.5933 -4.4999 0.0 0
M  V30 7 C 8.3433 -5.799 0.0 0
M  V30 8 C 7.7942 -2.25 0.0 0
M  V30 9 C 7.7942 -0.75 0.0 0
M  V30 10 C 6.4952 -3.0 0.0 0
M  V30 11 C 6.4952 0.0 0.0 0
M  V30 12 C 5.1961 -2.25 0.0 0
M  V30 13 C 5.1961 -0.75 0.0 0
M  V30 14 O 3.8971 0.0 0.0 0
M  V30 15 C 2.598 -0.75 0.0 0
M  V30 16 C 1.299 0.0 0.0 0
M  V30 17 C 0.0 -0.75 0.0 0
M  V30 18 N -1.3703 -0.1398 0.0 0
M  V30 19 C -0.1567 -2.2417 0.0 0
M  V30 20 C -2.374 -1.2546 0.0 0
M  V30 21 O -1.624 -2.5536 0.0 0
M  V30 22 C 0.9579 -3.2454 0.0 0
M  V30 23 C -3.8658 -1.0978 0.0 0
M  V30 24 C -4.4759 0.2724 0.0 0
M  V30 25 C -4.7474 -2.3113 0.0 0
M  V30 26 C -5.9676 0.4292 0.0 0
M  V30 27 C -6.2392 -2.1545 0.0 0
M  V30 28 C -6.8493 -0.7842 0.0 0
M  V30 END ATOM
M  V30 BEGIN BOND
M  V30 1 2 1 2
M  V30 2 1 2 3
M  V30 3 1 2 4
M  V30 4 1 4 5
M  V30 5 1 4 6
M  V30 6 1 4 7
M  V30 7 1 5 8
M  V30 8 2 8 9
M  V30 9 1 8 10
M  V30 10 1 9 11
M  V30 11 2 10 12
M  V30 12 2 11 13
M  V30 13 1 13 14
M  V30 14 1 14 15
M  V30 15 1 15 16
M  V30 16 1 16 17
M  V30 17 1 17 18
M  V30 18 2 17 19
M  V30 19 2 18 20
M  V30 20 1 19 21
M  V30 21 1 19 22
M  V30 22 1 20 23
M  V30 23 2 23 24
M  V30 24 1 23 25
M  V30 25 1 24 26
M  V30 26 2 25 27
M  V30 27 2 26 28
M  V30 28 1 12 13
M  V30 29 1 20 21
M  V30 30 1 27 28
M  V30 END BOND
M  V30 END CTAB
M  END
>  <Molecule ChEMBL ID>
CHEMBL66206

>  <Smiles>
Cc1oc(-c2ccccc2)nc1CCOc1ccc(OC(C)(C)C(=O)O)cc1

>  <IC50_nM>
2570

>  <Assay Description>
Binding affinity towards peroxisome proliferator activated receptor gamma

$$$$
CHEMBL477094
Actelion Java MolfileCreator 2.0

  0  0  0  0  0  0              0 V3000
M  V30 BEGIN CTAB
M  V30 COUNTS 31 34 0 0 0
M  V30 BEGIN ATOM
M  V30 1 O 6.9282 -4.5 0.0 0
M  V30 2 C 6.9282 -3.5 0.0 0
M  V30 3 O 7.7942 -3.0 0.0 0
M  V30 4 C 6.0621 -3.0 0.0 0 CFG=2
M  V30 5 N 5.1961 -3.5 0.0 0
M  V30 6 C 6.0621 -1.9999 0.0 0
M  V30 7 C 4.2826 -3.0932 0.0 0
M  V30 8 C 5.0916 -4.4945 0.0 0
M  V30 9 C 5.1961 -1.4999 0.0 0
M  V30 10 C 3.6134 -3.8364 0.0 0
M  V30 11 C 4.1134 -4.7024 0.0 0
M  V30 12 C 5.1961 -0.5 0.0 0
M  V30 13 C 4.3301 -1.9999 0.0 0
M  V30 14 C 4.3301 0.0 0.0 0
M  V30 15 C 3.4641 -1.5 0.0 0
M  V30 16 C 3.4641 -0.5 0.0 0
M  V30 17 C 2.598 0.0 0.0 0
M  V30 18 C 1.732 -0.5 0.0 0
M  V30 19 C 0.866 0.0 0.0 0
M  V30 20 C 0.0 -0.5 0.0 0
M  V30 21 N -0.9135 -0.0932 0.0 0
M  V30 22 C -0.1045 -1.4945 0.0 0
M  V30 23 C -1.5826 -0.8364 0.0 0
M  V30 24 O -1.0826 -1.7024 0.0 0
M  V30 25 C 0.6386 -2.1636 0.0 0
M  V30 26 C -2.5771 -0.7318 0.0 0
M  V30 27 C -2.9839 0.1816 0.0 0
M  V30 28 C -3.1649 -1.5408 0.0 0
M  V30 29 C -3.9784 0.2861 0.0 0
M  V30 30 C -4.1595 -1.4363 0.0 0
M  V30 31 C -4.5662 -0.5228 0.0 0
M  V30 END ATOM
M  V30 BEGIN BOND
M  V30 1 2 1 2
M  V30 2 1 2 3
M  V30 3 1 2 4
M  V30 4 1 4 5 CFG=3
M  V30 5 1 4 6
M  V30 6 1 5 7
M  V30 7 1 5 8
M  V30 8 1 6 9
M  V30 9 2 7 10
M  V30 10 2 8 11
M  V30 11 2 9 12
M  V30 12 1 9 13
M  V30 13 1 12 14
M  V30 14 2 13 15
M  V30 15 2 14 16
M  V30 16 1 16 17
M  V30 17 2 17 18
M  V30 18 1 18 19
M  V30 19 1 19 20
M  V30 20 1 20 21
M  V30 21 2 20 22
M  V30 22 2 21 23
M  V30 23 1 22 24
M  V30 24 1 22 25
M  V30 25 1 23 26
M  V30 26 2 26 27
M  V30 27 1 26 28
M  V30 28 1 27 29
M  V30 29 2 28 30
M  V30 30 2 29 31
M  V30 31 1 10 11
M  V30 32 1 15 16
M  V30 33 1 23 24
M  V30 34 1 30 31
M  V30 END BOND
M  V30 BEGIN COLLECTION
M  V30 MDLV30/STEABS ATOMS=(1 4)
M  V30 END COLLECTION
M  V30 END CTAB
M  END
>  <Molecule ChEMBL ID>
CHEMBL477094

>  <Smiles>
Cc1oc(-c2ccccc2)nc1C/C=C/c1ccc(C[C@H](C(=O)O)n2cccc2)cc1

>  <IC50_nM>
2600

>  <Assay Description>
Displacement of [3H]darglitazone from human PPARgamma by scintillation proximity assay

$$$$
CHEMBL54197
Actelion Java MolfileCreator 2.0

  0  0  0  0  0  0              0 V3000
M  V30 BEGIN CTAB
M  V30 COUNTS 35 38 0 0 0
M  V30 BEGIN ATOM
M  V30 1 S 7.8987 -2.9945 0.0 0
M  V30 2 C 8.8769 -3.2024 0.0 0
M  V30 3 C 7.7942 -2.0 0.0 0 CFG=2
M  V30 4 O 9.2836 -4.1159 0.0 0
M  V30 5 N 9.3769 -2.3364 0.0 0
M  V30 6 C 6.9282 -1.5 0.0 0
M  V30 7 C 8.7077 -1.5932 0.0 0
M  V30 8 C 6.9282 -0.5 0.0 0
M  V30 9 C 6.0621 -2.0 0.0 0
M  V30 10 O 8.9156 -0.6151 0.0 0
M  V30 11 C 6.0621 0.0 0.0 0
M  V30 12 C 5.1961 -1.5 0.0 0
M  V30 13 C 5.1961 -0.5 0.0 0
M  V30 14 O 4.3301 0.0 0.0 0
M  V30 15 C 3.4641 -0.5 0.0 0
M  V30 16 C 2.598 0.0 0.0 0
M  V30 17 C 1.732 -0.5 0.0 0
M  V30 18 O 0.866 0.0 0.0 0
M  V30 19 C 0.0 -0.5 0.0 0
M  V30 20 C -0.866 0.0 0.0 0
M  V30 21 C 0.0 -1.4999 0.0 0
M  V30 22 C -1.732 -0.4999 0.0 0
M  V30 23 C -0.866 1.0 0.0 0
M  V30 24 C -0.866 -1.9999 0.0 0
M  V30 25 C -1.732 -1.4999 0.0 0
M  V30 26 C 0.0 1.5 0.0 0
M  V30 27 O -2.598 -1.9999 0.0 0
M  V30 28 C 0.0 2.5 0.0 0
M  V30 29 C -2.598 -2.9999 0.0 0
M  V30 30 C -3.4641 -3.4999 0.0 0
M  V30 31 C -1.732 -3.4999 0.0 0
M  V30 32 C -3.4641 -4.4999 0.0 0
M  V30 33 C -1.732 -4.4999 0.0 0
M  V30 34 C -2.598 -4.9999 0.0 0
M  V30 35 C -2.598 -5.9999 0.0 0
M  V30 END ATOM
M  V30 BEGIN BOND
M  V30 1 1 1 2
M  V30 2 1 1 3
M  V30 3 2 2 4
M  V30 4 1 2 5
M  V30 5 1 3 6 CFG=3
M  V30 6 1 3 7
M  V30 7 2 6 8
M  V30 8 1 6 9
M  V30 9 2 7 10
M  V30 10 1 8 11
M  V30 11 2 9 12
M  V30 12 2 11 13
M  V30 13 1 13 14
M  V30 14 1 14 15
M  V30 15 1 15 16
M  V30 16 1 16 17
M  V30 17 1 17 18
M  V30 18 1 18 19
M  V30 19 2 19 20
M  V30 20 1 19 21
M  V30 21 1 20 22
M  V30 22 1 20 23
M  V30 23 2 21 24
M  V30 24 2 22 25
M  V30 25 1 23 26
M  V30 26 1 25 27
M  V30 27 1 26 28
M  V30 28 1 27 29
M  V30 29 2 29 30
M  V30 30 1 29 31
M  V30 31 1 30 32
M  V30 32 2 31 33
M  V30 33 2 32 34
M  V30 34 1 34 35
M  V30 35 1 5 7
M  V30 36 1 12 13
M  V30 37 1 24 25
M  V30 38 1 33 34
M  V30 END BOND
M  V30 BEGIN COLLECTION
M  V30 MDLV30/STERAC1 ATOMS=(1 3)
M  V30 END COLLECTION
M  V30 END CTAB
M  END
>  <Molecule ChEMBL ID>
CHEMBL54197

>  <Smiles>
CCCc1cc(Oc2ccc(C)cc2)ccc1OCCCOc1ccc(C2SC(=O)NC2=O)cc1

>  <IC50_nM>
2600

>  <Assay Description>
In vitro binding affinity against human PPAR gamma (peroxisome proliferator-activated gamma receptor)

$$$$
CHEMBL361424
Actelion Java MolfileCreator 2.0

  0  0  0  0  0  0              0 V3000
M  V30 BEGIN CTAB
M  V30 COUNTS 32 34 0 0 0
M  V30 BEGIN ATOM
M  V30 1 Cl 6.0621 1.0 0.0 0
M  V30 2 C 6.0621 0.0 0.0 0
M  V30 3 C 5.1961 -0.5 0.0 0
M  V30 4 C 6.9282 -0.4999 0.0 0
M  V30 5 O 4.3301 0.0 0.0 0
M  V30 6 C 5.1961 -1.4999 0.0 0
M  V30 7 C 6.9282 -1.4999 0.0 0
M  V30 8 C 3.4641 -0.5 0.0 0
M  V30 9 C 6.0621 -1.9999 0.0 0
M  V30 10 O 7.7942 -1.9999 0.0 0
M  V30 11 C 2.598 0.0 0.0 0
M  V30 12 C 8.6602 -1.4999 0.0 0
M  V30 13 C 1.732 -0.5 0.0 0
M  V30 14 F 8.1602 -0.6339 0.0 0
M  V30 15 F 9.5262 -0.9999 0.0 0
M  V30 16 F 9.1602 -2.366 0.0 0
M  V30 17 O 0.866 0.0 0.0 0
M  V30 18 C 0.0 -0.5 0.0 0
M  V30 19 C -0.866 0.0 0.0 0
M  V30 20 C 0.0 -1.4999 0.0 0
M  V30 21 C -1.732 -0.4999 0.0 0
M  V30 22 C -0.866 -1.9999 0.0 0
M  V30 23 O -2.598 0.0 0.0 0
M  V30 24 C -1.732 -1.4999 0.0 0
M  V30 25 C -3.4641 -0.4999 0.0 0 CFG=1
M  V30 26 C -2.598 -1.9999 0.0 0
M  V30 27 C -3.4641 0.5 0.0 0
M  V30 28 C -3.4641 -1.4999 0.0 0
M  V30 29 C -4.3301 0.0 0.0 0
M  V30 30 O -4.3301 1.0 0.0 0
M  V30 31 O -2.598 1.0 0.0 0
M  V30 32 C -5.1961 -0.4999 0.0 0
M  V30 END ATOM
M  V30 BEGIN BOND
M  V30 1 1 1 2
M  V30 2 2 2 3
M  V30 3 1 2 4
M  V30 4 1 3 5
M  V30 5 1 3 6
M  V30 6 2 4 7
M  V30 7 1 5 8
M  V30 8 2 6 9
M  V30 9 1 7 10
M  V30 10 1 8 11
M  V30 11 1 10 12
M  V30 12 1 11 13
M  V30 13 1 12 14
M  V30 14 1 12 15
M  V30 15 1 12 16
M  V30 16 1 13 17
M  V30 17 1 17 18
M  V30 18 2 18 19
M  V30 19 1 18 20
M  V30 20 1 19 21
M  V30 21 2 20 22
M  V30 22 1 21 23
M  V30 23 2 21 24
M  V30 24 1 23 25
M  V30 25 1 24 26
M  V30 26 1 25 27 CFG=3
M  V30 27 1 25 28
M  V30 28 1 25 29
M  V30 29 2 27 30
M  V30 30 1 27 31
M  V30 31 1 29 32
M  V30 32 1 7 9
M  V30 33 1 22 24
M  V30 34 1 26 28
M  V30 END BOND
M  V30 BEGIN COLLECTION
M  V30 MDLV30/STEABS ATOMS=(1 25)
M  V30 END COLLECTION
M  V30 END CTAB
M  END
>  <Molecule ChEMBL ID>
CHEMBL361424

>  <Smiles>
CC[C@]1(C(=O)O)CCc2ccc(OCCCOc3ccc(OC(F)(F)F)cc3Cl)cc2O1

>  <IC50_nM>
2600

>  <Assay Description>
In vitro binding affinity against human PPARgamma

$$$$
CHEMBL408
Actelion Java MolfileCreator 2.0

  0  0  0  0  0  0              0 V3000
M  V30 BEGIN CTAB
M  V30 COUNTS 31 34 0 0 0
M  V30 BEGIN ATOM
M  V30 1 S 6.1667 0.0054 0.0 0
M  V30 2 C 7.1448 -0.2024 0.0 0
M  V30 3 C 6.0621 1.0 0.0 0
M  V30 4 O 7.5515 -1.1159 0.0 0
M  V30 5 N 7.6448 0.6635 0.0 0
M  V30 6 C 6.9757 1.4067 0.0 0
M  V30 7 C 5.1961 1.5 0.0 0
M  V30 8 O 7.1836 2.3848 0.0 0
M  V30 9 C 4.3301 1.0 0.0 0
M  V30 10 C 3.4641 1.5 0.0 0
M  V30 11 C 4.3301 0.0 0.0 0
M  V30 12 C 2.598 0.9999 0.0 0
M  V30 13 C 3.4641 -0.4999 0.0 0
M  V30 14 C 2.598 0.0 0.0 0
M  V30 15 O 1.732 -0.5 0.0 0
M  V30 16 C 0.866 0.0 0.0 0
M  V30 17 C 0.0 -0.5 0.0 0
M  V30 18 O -0.866 0.0 0.0 0
M  V30 19 C 0.0 -1.4999 0.0 0
M  V30 20 C 0.866 -1.0 0.0 0
M  V30 21 C -1.732 -0.4999 0.0 0
M  V30 22 C -0.866 -1.9999 0.0 0
M  V30 23 C -1.732 -1.4999 0.0 0
M  V30 24 C -2.598 0.0 0.0 0
M  V30 25 C -2.598 -1.9999 0.0 0
M  V30 26 C -3.4641 -0.4999 0.0 0
M  V30 27 C -2.598 1.0 0.0 0
M  V30 28 C -3.4641 -1.4999 0.0 0
M  V30 29 C -2.598 -2.9999 0.0 0
M  V30 30 C -4.3301 0.0 0.0 0
M  V30 31 O -4.3301 -1.9999 0.0 0
M  V30 END ATOM
M  V30 BEGIN BOND
M  V30 1 1 1 2
M  V30 2 1 1 3
M  V30 3 2 2 4
M  V30 4 1 2 5
M  V30 5 1 3 6
M  V30 6 1 3 7
M  V30 7 2 6 8
M  V30 8 1 7 9
M  V30 9 2 9 10
M  V30 10 1 9 11
M  V30 11 1 10 12
M  V30 12 2 11 13
M  V30 13 2 12 14
M  V30 14 1 14 15
M  V30 15 1 15 16
M  V30 16 1 16 17
M  V30 17 1 17 18
M  V30 18 1 17 19
M  V30 19 1 17 20
M  V30 20 1 18 21
M  V30 21 1 19 22
M  V30 22 2 21 23
M  V30 23 1 21 24
M  V30 24 1 23 25
M  V30 25 2 24 26
M  V30 26 1 24 27
M  V30 27 2 25 28
M  V30 28 1 25 29
M  V30 29 1 26 30
M  V30 30 1 28 31
M  V30 31 1 5 6
M  V30 32 1 13 14
M  V30 33 1 22 23
M  V30 34 1 26 28
M  V30 END BOND
M  V30 END CTAB
M  END
>  <Molecule ChEMBL ID>
CHEMBL408

>  <Smiles>
Cc1c(C)c2c(c(C)c1O)CCC(C)(COc1ccc(CC3SC(=O)NC3=O)cc1)O2

>  <IC50_nM>
2600

>  <Assay Description>
Inhibition of fluormone binding to human PPARgamma LBD after 2 hrs by competitive fluorescence polarization assay

$$$$
CHEMBL4862243
Actelion Java MolfileCreator 2.0

  0  0  0  0  0  0              0 V3000
M  V30 BEGIN CTAB
M  V30 COUNTS 40 42 0 0 0
M  V30 BEGIN ATOM
M  V30 1 O 2.598 1.0 0.0 0
M  V30 2 C 2.598 0.0 0.0 0
M  V30 3 N 3.4641 -0.5 0.0 0
M  V30 4 C 1.732 -0.5 0.0 0
M  V30 5 C 4.3301 0.0 0.0 0
M  V30 6 O 1.732 -1.5 0.0 0
M  V30 7 C 0.866 0.0 0.0 0
M  V30 8 C 5.1961 -0.4999 0.0 0
M  V30 9 C 4.3301 0.9999 0.0 0
M  V30 10 C 0.0 -0.5 0.0 0
M  V30 11 C 6.0621 0.0 0.0 0
M  V30 12 C 5.1961 -1.4999 0.0 0
M  V30 13 C 5.1961 1.4999 0.0 0
M  V30 14 C -0.866 0.0 0.0 0
M  V30 15 C 0.0 -1.4999 0.0 0
M  V30 16 C 6.0621 1.0 0.0 0
M  V30 17 C 6.9282 -0.5 0.0 0
M  V30 18 C -0.866 1.0 0.0 0
M  V30 19 C -1.732 -0.4999 0.0 0
M  V30 20 C -0.866 -1.9999 0.0 0
M  V30 21 O 0.0 1.5 0.0 0
M  V30 22 C -1.732 1.5 0.0 0
M  V30 23 C -1.732 -1.4999 0.0 0
M  V30 24 C -0.866 -2.9999 0.0 0
M  V30 25 C -2.598 -1.9999 0.0 0
M  V30 26 C 0.0 -3.4999 0.0 0
M  V30 27 O -3.4641 -1.4999 0.0 0
M  V30 28 C -2.598 -2.9999 0.0 0
M  V30 29 O 0.866 -3.0 0.0 0
M  V30 30 C 0.0 -4.4999 0.0 0
M  V30 31 O -0.866 -4.9999 0.0 0
M  V30 32 N 0.866 -5.0 0.0 0
M  V30 33 C 0.866 -6.0 0.0 0
M  V30 34 C 1.732 -6.5 0.0 0
M  V30 35 C 0.0 -6.5 0.0 0
M  V30 36 C 1.732 -7.5 0.0 0
M  V30 37 C 2.598 -5.9999 0.0 0
M  V30 38 C 0.0 -7.5 0.0 0
M  V30 39 C 0.866 -8.0 0.0 0
M  V30 40 C 2.598 -8.0 0.0 0
M  V30 END ATOM
M  V30 BEGIN BOND
M  V30 1 2 1 2
M  V30 2 1 2 3
M  V30 3 1 2 4
M  V30 4 1 3 5
M  V30 5 2 4 6
M  V30 6 1 4 7
M  V30 7 2 5 8
M  V30 8 1 5 9
M  V30 9 1 7 10
M  V30 10 1 8 11
M  V30 11 1 8 12
M  V30 12 2 9 13
M  V30 13 2 10 14
M  V30 14 1 10 15
M  V30 15 2 11 16
M  V30 16 1 11 17
M  V30 17 1 14 18
M  V30 18 1 14 19
M  V30 19 2 15 20
M  V30 20 2 18 21
M  V30 21 1 18 22
M  V30 22 2 19 23
M  V30 23 1 20 24
M  V30 24 1 23 25
M  V30 25 1 24 26
M  V30 26 2 25 27
M  V30 27 1 25 28
M  V30 28 2 26 29
M  V30 29 1 26 30
M  V30 30 2 30 31
M  V30 31 1 30 32
M  V30 32 1 32 33
M  V30 33 2 33 34
M  V30 34 1 33 35
M  V30 35 1 34 36
M  V30 36 1 34 37
M  V30 37 2 35 38
M  V30 38 2 36 39
M  V30 39 1 36 40
M  V30 40 1 13 16
M  V30 41 1 20 23
M  V30 42 1 38 39
M  V30 END BOND
M  V30 END CTAB
M  END
>  <Molecule ChEMBL ID>
CHEMBL4862243

>  <Smiles>
CC(=O)c1cc(C(C)=O)c(CC(=O)C(=O)Nc2cccc(C)c2C)cc1CC(=O)C(=O)Nc1cccc(C)c1C

>  <IC50_nM>
2600

>  <Assay Description>
Antagonist activity at PPARgamma (unknown origin) expressed in human LNCaP cells assessed as suppression of pioglitazone-induced PPAR response element driven firefly luciferase activity measured after 24 hrs by dual luciferase reporter assay

$$$$
CHEMBL361424
Actelion Java MolfileCreator 2.0

  0  0  0  0  0  0              0 V3000
M  V30 BEGIN CTAB
M  V30 COUNTS 32 34 0 0 0
M  V30 BEGIN ATOM
M  V30 1 Cl 6.0621 1.0 0.0 0
M  V30 2 C 6.0621 0.0 0.0 0
M  V30 3 C 5.1961 -0.5 0.0 0
M  V30 4 C 6.9282 -0.4999 0.0 0
M  V30 5 O 4.3301 0.0 0.0 0
M  V30 6 C 5.1961 -1.4999 0.0 0
M  V30 7 C 6.9282 -1.4999 0.0 0
M  V30 8 C 3.4641 -0.5 0.0 0
M  V30 9 C 6.0621 -1.9999 0.0 0
M  V30 10 O 7.7942 -1.9999 0.0 0
M  V30 11 C 2.598 0.0 0.0 0
M  V30 12 C 8.6602 -1.4999 0.0 0
M  V30 13 C 1.732 -0.5 0.0 0
M  V30 14 F 8.1602 -0.6339 0.0 0
M  V30 15 F 9.5262 -0.9999 0.0 0
M  V30 16 F 9.1602 -2.366 0.0 0
M  V30 17 O 0.866 0.0 0.0 0
M  V30 18 C 0.0 -0.5 0.0 0
M  V30 19 C -0.866 0.0 0.0 0
M  V30 20 C 0.0 -1.4999 0.0 0
M  V30 21 C -1.732 -0.4999 0.0 0
M  V30 22 C -0.866 -1.9999 0.0 0
M  V30 23 O -2.598 0.0 0.0 0
M  V30 24 C -1.732 -1.4999 0.0 0
M  V30 25 C -3.4641 -0.4999 0.0 0 CFG=1
M  V30 26 C -2.598 -1.9999 0.0 0
M  V30 27 C -3.4641 0.5 0.0 0
M  V30 28 C -3.4641 -1.4999 0.0 0
M  V30 29 C -4.3301 0.0 0.0 0
M  V30 30 O -4.3301 1.0 0.0 0
M  V30 31 O -2.598 1.0 0.0 0
M  V30 32 C -5.1961 -0.4999 0.0 0
M  V30 END ATOM
M  V30 BEGIN BOND
M  V30 1 1 1 2
M  V30 2 2 2 3
M  V30 3 1 2 4
M  V30 4 1 3 5
M  V30 5 1 3 6
M  V30 6 2 4 7
M  V30 7 1 5 8
M  V30 8 2 6 9
M  V30 9 1 7 10
M  V30 10 1 8 11
M  V30 11 1 10 12
M  V30 12 1 11 13
M  V30 13 1 12 14
M  V30 14 1 12 15
M  V30 15 1 12 16
M  V30 16 1 13 17
M  V30 17 1 17 18
M  V30 18 2 18 19
M  V30 19 1 18 20
M  V30 20 1 19 21
M  V30 21 2 20 22
M  V30 22 1 21 23
M  V30 23 2 21 24
M  V30 24 1 23 25
M  V30 25 1 24 26
M  V30 26 1 25 27 CFG=3
M  V30 27 1 25 28
M  V30 28 1 25 29
M  V30 29 2 27 30
M  V30 30 1 27 31
M  V30 31 1 29 32
M  V30 32 1 7 9
M  V30 33 1 22 24
M  V30 34 1 26 28
M  V30 END BOND
M  V30 BEGIN COLLECTION
M  V30 MDLV30/STEABS ATOMS=(1 25)
M  V30 END COLLECTION
M  V30 END CTAB
M  END
>  <Molecule ChEMBL ID>
CHEMBL361424

>  <Smiles>
CC[C@]1(C(=O)O)CCc2ccc(OCCCOc3ccc(OC(F)(F)F)cc3Cl)cc2O1

>  <IC50_nM>
2600

>  <Assay Description>
Agonist activity at PPARgamma

$$$$
CHEMBL4460559
Actelion Java MolfileCreator 2.0

  0  0  0  0  0  0              0 V3000
M  V30 BEGIN CTAB
M  V30 COUNTS 45 48 0 0 0
M  V30 BEGIN ATOM
M  V30 1 F 20.0346 3.549 0.0 0
M  V30 2 C 20.7846 2.25 0.0 0
M  V30 3 F 22.0836 3.0 0.0 0
M  V30 4 F 21.5346 0.9509 0.0 0
M  V30 5 C 19.4855 1.4999 0.0 0
M  V30 6 N 18.1865 2.2499 0.0 0
M  V30 7 C 19.4855 0.0 0.0 0
M  V30 8 C 16.8874 1.4999 0.0 0
M  V30 9 C 18.1865 -0.75 0.0 0
M  V30 10 C 16.8874 0.0 0.0 0
M  V30 11 C 15.5884 2.2499 0.0 0
M  V30 12 O 18.1865 -2.25 0.0 0
M  V30 13 C 15.5884 -0.75 0.0 0
M  V30 14 C 14.2894 1.4999 0.0 0
M  V30 15 C 19.4855 -2.9999 0.0 0
M  V30 16 C 14.2894 0.0 0.0 0
M  V30 17 C 12.9903 -0.75 0.0 0
M  V30 18 O 11.6913 0.0 0.0 0
M  V30 19 C 10.3923 -0.75 0.0 0
M  V30 20 C 9.0932 0.0 0.0 0
M  V30 21 C 10.3923 -2.25 0.0 0
M  V30 22 C 7.7942 -0.75 0.0 0
M  V30 23 C 9.0932 -3.0 0.0 0
M  V30 24 C 7.7942 -2.25 0.0 0
M  V30 25 C 6.4951 0.0 0.0 0
M  V30 26 O 6.4951 -3.0 0.0 0
M  V30 27 C 6.4951 1.5 0.0 0
M  V30 28 C 5.1961 -2.2499 0.0 0
M  V30 29 C 5.1961 2.25 0.0 0
M  V30 30 C 7.7942 2.25 0.0 0
M  V30 31 C 3.8971 -2.9999 0.0 0
M  V30 32 O 5.1961 3.75 0.0 0
M  V30 33 O 3.8971 1.5 0.0 0
M  V30 34 C 7.7942 3.75 0.0 0
M  V30 35 C 2.598 -2.2499 0.0 0
M  V30 36 C 3.8971 -4.4999 0.0 0
M  V30 37 C 9.0932 4.5 0.0 0
M  V30 38 C 1.299 -2.9999 0.0 0
M  V30 39 C 2.598 -5.2499 0.0 0
M  V30 40 C 9.0932 5.9999 0.0 0
M  V30 41 C 1.299 -4.4999 0.0 0
M  V30 42 O 0.0 -5.2499 0.0 0
M  V30 43 C -1.299 -4.4999 0.0 0
M  V30 44 F -1.299 -2.9999 0.0 0
M  V30 45 F -2.598 -5.2499 0.0 0
M  V30 END ATOM
M  V30 BEGIN BOND
M  V30 1 1 1 2
M  V30 2 1 2 3
M  V30 3 1 2 4
M  V30 4 1 2 5
M  V30 5 2 5 6
M  V30 6 1 5 7
M  V30 7 1 6 8
M  V30 8 2 7 9
M  V30 9 1 8 10
M  V30 10 2 8 11
M  V30 11 1 9 12
M  V30 12 2 10 13
M  V30 13 1 11 14
M  V30 14 1 12 15
M  V30 15 1 13 16
M  V30 16 1 16 17
M  V30 17 1 17 18
M  V30 18 1 18 19
M  V30 19 2 19 20
M  V30 20 1 19 21
M  V30 21 1 20 22
M  V30 22 2 21 23
M  V30 23 2 22 24
M  V30 24 1 22 25
M  V30 25 1 24 26
M  V30 26 2 25 27
M  V30 27 1 26 28
M  V30 28 1 27 29
M  V30 29 1 27 30
M  V30 30 1 28 31
M  V30 31 2 29 32
M  V30 32 1 29 33
M  V30 33 1 30 34
M  V30 34 2 31 35
M  V30 35 1 31 36
M  V30 36 1 34 37
M  V30 37 1 35 38
M  V30 38 2 36 39
M  V30 39 1 37 40
M  V30 40 2 38 41
M  V30 41 1 41 42
M  V30 42 1 42 43
M  V30 43 1 43 44
M  V30 44 1 43 45
M  V30 45 1 9 10
M  V30 46 2 14 16
M  V30 47 1 23 24
M  V30 48 1 39 41
M  V30 END BOND
M  V30 END CTAB
M  END
>  <Molecule ChEMBL ID>
CHEMBL4460559

>  <Smiles>
CCCC/C(=C\c1cc(OCc2ccc3nc(C(F)(F)F)cc(OC)c3c2)ccc1OCc1ccc(OC(F)F)cc1)C(=O)O

>  <IC50_nM>
2600

>  <Assay Description>
Antagonist actvity in pFA-GAL4-DBD fused PPARgamma LBD (unknown origin) transfected in HEK293T cells assessed as inhibition of rosiglitazone-induced PPARgamma transactivation incubated for 24 hrs by luciferase reporter gene assay

$$$$
CHEMBL361424
Actelion Java MolfileCreator 2.0

  0  0  0  0  0  0              0 V3000
M  V30 BEGIN CTAB
M  V30 COUNTS 32 34 0 0 0
M  V30 BEGIN ATOM
M  V30 1 Cl 6.0621 1.0 0.0 0
M  V30 2 C 6.0621 0.0 0.0 0
M  V30 3 C 5.1961 -0.5 0.0 0
M  V30 4 C 6.9282 -0.4999 0.0 0
M  V30 5 O 4.3301 0.0 0.0 0
M  V30 6 C 5.1961 -1.4999 0.0 0
M  V30 7 C 6.9282 -1.4999 0.0 0
M  V30 8 C 3.4641 -0.5 0.0 0
M  V30 9 C 6.0621 -1.9999 0.0 0
M  V30 10 O 7.7942 -1.9999 0.0 0
M  V30 11 C 2.598 0.0 0.0 0
M  V30 12 C 8.6602 -1.4999 0.0 0
M  V30 13 C 1.732 -0.5 0.0 0
M  V30 14 F 8.1602 -0.6339 0.0 0
M  V30 15 F 9.5262 -0.9999 0.0 0
M  V30 16 F 9.1602 -2.366 0.0 0
M  V30 17 O 0.866 0.0 0.0 0
M  V30 18 C 0.0 -0.5 0.0 0
M  V30 19 C -0.866 0.0 0.0 0
M  V30 20 C 0.0 -1.4999 0.0 0
M  V30 21 C -1.732 -0.4999 0.0 0
M  V30 22 C -0.866 -1.9999 0.0 0
M  V30 23 O -2.598 0.0 0.0 0
M  V30 24 C -1.732 -1.4999 0.0 0
M  V30 25 C -3.4641 -0.4999 0.0 0 CFG=1
M  V30 26 C -2.598 -1.9999 0.0 0
M  V30 27 C -3.4641 0.5 0.0 0
M  V30 28 C -3.4641 -1.4999 0.0 0
M  V30 29 C -4.3301 0.0 0.0 0
M  V30 30 O -4.3301 1.0 0.0 0
M  V30 31 O -2.598 1.0 0.0 0
M  V30 32 C -5.1961 -0.4999 0.0 0
M  V30 END ATOM
M  V30 BEGIN BOND
M  V30 1 1 1 2
M  V30 2 2 2 3
M  V30 3 1 2 4
M  V30 4 1 3 5
M  V30 5 1 3 6
M  V30 6 2 4 7
M  V30 7 1 5 8
M  V30 8 2 6 9
M  V30 9 1 7 10
M  V30 10 1 8 11
M  V30 11 1 10 12
M  V30 12 1 11 13
M  V30 13 1 12 14
M  V30 14 1 12 15
M  V30 15 1 12 16
M  V30 16 1 13 17
M  V30 17 1 17 18
M  V30 18 2 18 19
M  V30 19 1 18 20
M  V30 20 1 19 21
M  V30 21 2 20 22
M  V30 22 1 21 23
M  V30 23 2 21 24
M  V30 24 1 23 25
M  V30 25 1 24 26
M  V30 26 1 25 27 CFG=3
M  V30 27 1 25 28
M  V30 28 1 25 29
M  V30 29 2 27 30
M  V30 30 1 27 31
M  V30 31 1 29 32
M  V30 32 1 7 9
M  V30 33 1 22 24
M  V30 34 1 26 28
M  V30 END BOND
M  V30 BEGIN COLLECTION
M  V30 MDLV30/STEABS ATOMS=(1 25)
M  V30 END COLLECTION
M  V30 END CTAB
M  END
>  <Molecule ChEMBL ID>
CHEMBL361424

>  <Smiles>
CC[C@]1(C(=O)O)CCc2ccc(OCCCOc3ccc(OC(F)(F)F)cc3Cl)cc2O1

>  <IC50_nM>
2600.16

>  <Assay Description>
Agonist activity at PPARgamma

$$$$
CHEMBL3398442
Actelion Java MolfileCreator 2.0

  0  0  0  0  0  0              0 V3000
M  V30 BEGIN CTAB
M  V30 COUNTS 35 38 0 0 0
M  V30 BEGIN ATOM
M  V30 1 O 5.3811 -6.2614 0.0 0
M  V30 2 C 4.9743 -5.3478 0.0 0
M  V30 3 O 3.9798 -5.2433 0.0 0
M  V30 4 N 5.5621 -4.5388 0.0 0
M  V30 5 C 3.5731 -4.3297 0.0 0
M  V30 6 C 6.5621 -4.5388 0.0 0
M  V30 7 C 5.2531 -3.5877 0.0 0
M  V30 8 C 2.5786 -4.2252 0.0 0
M  V30 9 C 6.8711 -3.5877 0.0 0 CFG=1
M  V30 10 C 6.0621 -3.0 0.0 0 CFG=2
M  V30 11 C 7.8222 -3.2787 0.0 0
M  V30 12 C 6.0621 -2.0 0.0 0
M  V30 13 O 8.5653 -3.9478 0.0 0
M  V30 14 O 8.0301 -2.3006 0.0 0
M  V30 15 C 5.1961 -1.4999 0.0 0
M  V30 16 C 5.1961 -0.5 0.0 0
M  V30 17 C 4.3301 -1.9999 0.0 0
M  V30 18 C 4.3301 0.0 0.0 0
M  V30 19 C 3.4641 -1.5 0.0 0
M  V30 20 C 3.4641 -0.5 0.0 0
M  V30 21 O 2.598 0.0 0.0 0
M  V30 22 C 1.732 -0.5 0.0 0
M  V30 23 C 0.866 0.0 0.0 0
M  V30 24 C 0.0 -0.5 0.0 0
M  V30 25 N -0.9135 -0.0932 0.0 0
M  V30 26 C -0.1045 -1.4945 0.0 0
M  V30 27 C -1.5826 -0.8364 0.0 0
M  V30 28 O -1.0826 -1.7024 0.0 0
M  V30 29 C 0.6386 -2.1636 0.0 0
M  V30 30 C -2.5771 -0.7318 0.0 0
M  V30 31 C -2.9839 0.1816 0.0 0
M  V30 32 C -3.1649 -1.5408 0.0 0
M  V30 33 C -3.9784 0.2861 0.0 0
M  V30 34 C -4.1595 -1.4363 0.0 0
M  V30 35 C -4.5662 -0.5228 0.0 0
M  V30 END ATOM
M  V30 BEGIN BOND
M  V30 1 2 1 2
M  V30 2 1 2 3
M  V30 3 1 2 4
M  V30 4 1 3 5
M  V30 5 1 4 6
M  V30 6 1 4 7
M  V30 7 1 5 8
M  V30 8 1 6 9
M  V30 9 1 7 10
M  V30 10 1 9 11 CFG=1
M  V30 11 1 10 12 CFG=1
M  V30 12 2 11 13
M  V30 13 1 11 14
M  V30 14 1 12 15
M  V30 15 2 15 16
M  V30 16 1 15 17
M  V30 17 1 16 18
M  V30 18 2 17 19
M  V30 19 2 18 20
M  V30 20 1 20 21
M  V30 21 1 21 22
M  V30 22 1 22 23
M  V30 23 1 23 24
M  V30 24 1 24 25
M  V30 25 2 24 26
M  V30 26 2 25 27
M  V30 27 1 26 28
M  V30 28 1 26 29
M  V30 29 1 27 30
M  V30 30 2 30 31
M  V30 31 1 30 32
M  V30 32 1 31 33
M  V30 33 2 32 34
M  V30 34 2 33 35
M  V30 35 1 9 10
M  V30 36 1 19 20
M  V30 37 1 27 28
M  V30 38 1 34 35
M  V30 END BOND
M  V30 BEGIN COLLECTION
M  V30 MDLV30/STEABS ATOMS=(2 9 10)
M  V30 END COLLECTION
M  V30 END CTAB
M  END
>  <Molecule ChEMBL ID>
CHEMBL3398442

>  <Smiles>
CCOC(=O)N1C[C@@H](Cc2ccc(OCCc3nc(-c4ccccc4)oc3C)cc2)[C@@H](C(=O)O)C1

>  <IC50_nM>
2680

>  <Assay Description>
Binding affinity to PPARgamma (unknown origin) using fluorescein-tagged dual PPARalpha/gamma activator by homogeneous fluorescence polarization binding assay

$$$$
CHEMBL519153
Actelion Java MolfileCreator 2.0

  0  0  0  0  0  0              0 V3000
M  V30 BEGIN CTAB
M  V30 COUNTS 32 35 0 0 0
M  V30 BEGIN ATOM
M  V30 1 S 5.3804 2.5036 0.0 0
M  V30 2 C 6.4951 1.5 0.0 0
M  V30 3 C 5.9905 3.874 0.0 0
M  V30 4 C 6.4951 0.0 0.0 0
M  V30 5 C 7.7942 2.25 0.0 0
M  V30 6 C 7.4823 3.7172 0.0 0
M  V30 7 C 7.7942 -0.7499 0.0 0
M  V30 8 C 5.1961 -0.75 0.0 0
M  V30 9 C 9.0932 1.4999 0.0 0
M  V30 10 C 9.0932 0.0 0.0 0
M  V30 11 C 5.1961 -2.25 0.0 0 CFG=1
M  V30 12 O 10.3923 2.2499 0.0 0
M  V30 13 O 3.8971 -3.0 0.0 0
M  V30 14 C 6.4951 -3.0 0.0 0
M  V30 15 C 10.3923 3.75 0.0 0
M  V30 16 C 3.8971 -4.5 0.0 0
M  V30 17 O 7.7942 -2.25 0.0 0
M  V30 18 O 6.4951 -4.5 0.0 0
M  V30 19 C 11.6913 4.5 0.0 0
M  V30 20 C 2.598 -5.25 0.0 0
M  V30 21 C 11.6913 6.0 0.0 0
M  V30 22 N 12.9048 6.8816 0.0 0
M  V30 23 C 10.4778 6.8816 0.0 0
M  V30 24 C 12.4413 8.3082 0.0 0
M  V30 25 O 10.9413 8.3082 0.0 0
M  V30 26 C 9.0512 6.4181 0.0 0
M  V30 27 C 13.323 9.5217 0.0 0
M  V30 28 C 14.8148 9.3649 0.0 0
M  V30 29 C 12.7129 10.8921 0.0 0
M  V30 30 C 15.6964 10.5785 0.0 0
M  V30 31 C 13.5945 12.1056 0.0 0
M  V30 32 C 15.0863 11.9488 0.0 0
M  V30 END ATOM
M  V30 BEGIN BOND
M  V30 1 1 1 2
M  V30 2 1 1 3
M  V30 3 2 2 4
M  V30 4 1 2 5
M  V30 5 2 3 6
M  V30 6 1 4 7
M  V30 7 1 4 8
M  V30 8 2 5 9
M  V30 9 2 7 10
M  V30 10 1 8 11
M  V30 11 1 9 12
M  V30 12 1 11 13 CFG=3
M  V30 13 1 11 14
M  V30 14 1 12 15
M  V30 15 1 13 16
M  V30 16 2 14 17
M  V30 17 1 14 18
M  V30 18 1 15 19
M  V30 19 1 16 20
M  V30 20 1 19 21
M  V30 21 1 21 22
M  V30 22 2 21 23
M  V30 23 2 22 24
M  V30 24 1 23 25
M  V30 25 1 23 26
M  V30 26 1 24 27
M  V30 27 2 27 28
M  V30 28 1 27 29
M  V30 29 1 28 30
M  V30 30 2 29 31
M  V30 31 2 30 32
M  V30 32 1 5 6
M  V30 33 1 9 10
M  V30 34 1 24 25
M  V30 35 1 31 32
M  V30 END BOND
M  V30 BEGIN COLLECTION
M  V30 MDLV30/STEABS ATOMS=(1 11)
M  V30 END COLLECTION
M  V30 END CTAB
M  END
>  <Molecule ChEMBL ID>
CHEMBL519153

>  <Smiles>
CCO[C@H](Cc1ccc(OCCc2nc(-c3ccccc3)oc2C)c2ccsc12)C(=O)O

>  <IC50_nM>
2680

>  <Assay Description>
Displacement of radio labeled 2(S)-(2-benzoyl-phenylamino)-3-{4-[1,1-ditritio-2-(5-methyl-2-phenyl-oxazol-4-yl)-ethoxy]-phenyl}-propionic acid from GST-fused human PPARgamma expressed in Escherichia coli BL21 cells by scintillation proximity assay

$$$$
CHEMBL180928
Actelion Java MolfileCreator 2.0

  0  0  0  0  0  0              0 V3000
M  V30 BEGIN CTAB
M  V30 COUNTS 32 34 0 0 0
M  V30 BEGIN ATOM
M  V30 1 Cl 6.0621 1.0 0.0 0
M  V30 2 C 6.0621 0.0 0.0 0
M  V30 3 C 5.1961 -0.5 0.0 0
M  V30 4 C 6.9282 -0.4999 0.0 0
M  V30 5 O 4.3301 0.0 0.0 0
M  V30 6 C 5.1961 -1.4999 0.0 0
M  V30 7 C 6.9282 -1.4999 0.0 0
M  V30 8 C 3.4641 -0.5 0.0 0
M  V30 9 C 6.0621 -1.9999 0.0 0
M  V30 10 O 7.7942 -1.9999 0.0 0
M  V30 11 C 2.598 0.0 0.0 0
M  V30 12 C 7.7942 -2.9999 0.0 0
M  V30 13 C 1.732 -0.5 0.0 0
M  V30 14 C 8.6602 -3.4999 0.0 0
M  V30 15 O 0.866 0.0 0.0 0
M  V30 16 F 9.1602 -2.6339 0.0 0
M  V30 17 F 9.5262 -3.9999 0.0 0
M  V30 18 F 8.1602 -4.366 0.0 0
M  V30 19 C 0.0 -0.5 0.0 0
M  V30 20 C -0.866 0.0 0.0 0
M  V30 21 C 0.0 -1.4999 0.0 0
M  V30 22 C -1.732 -0.4999 0.0 0
M  V30 23 C -0.866 -1.9999 0.0 0
M  V30 24 O -2.598 0.0 0.0 0
M  V30 25 C -1.732 -1.4999 0.0 0
M  V30 26 C -3.4641 -0.4999 0.0 0 CFG=2
M  V30 27 C -2.598 -1.9999 0.0 0
M  V30 28 C -4.3301 0.0 0.0 0
M  V30 29 C -3.4641 -1.4999 0.0 0
M  V30 30 C -4.3301 -0.9999 0.0 0
M  V30 31 O -5.1961 -0.4999 0.0 0
M  V30 32 O -4.3301 1.0 0.0 0
M  V30 END ATOM
M  V30 BEGIN BOND
M  V30 1 1 1 2
M  V30 2 2 2 3
M  V30 3 1 2 4
M  V30 4 1 3 5
M  V30 5 1 3 6
M  V30 6 2 4 7
M  V30 7 1 5 8
M  V30 8 2 6 9
M  V30 9 1 7 10
M  V30 10 1 8 11
M  V30 11 1 10 12
M  V30 12 1 11 13
M  V30 13 1 12 14
M  V30 14 1 13 15
M  V30 15 1 14 16
M  V30 16 1 14 17
M  V30 17 1 14 18
M  V30 18 1 15 19
M  V30 19 2 19 20
M  V30 20 1 19 21
M  V30 21 1 20 22
M  V30 22 2 21 23
M  V30 23 1 22 24
M  V30 24 2 22 25
M  V30 25 1 24 26
M  V30 26 1 25 27
M  V30 27 1 26 28
M  V30 28 1 26 29
M  V30 29 1 26 30 CFG=3
M  V30 30 2 28 31
M  V30 31 1 28 32
M  V30 32 1 7 9
M  V30 33 1 23 25
M  V30 34 1 27 29
M  V30 END BOND
M  V30 BEGIN COLLECTION
M  V30 MDLV30/STEABS ATOMS=(1 26)
M  V30 END COLLECTION
M  V30 END CTAB
M  END
>  <Molecule ChEMBL ID>
CHEMBL180928

>  <Smiles>
C[C@@]1(C(=O)O)CCc2ccc(OCCCOc3ccc(OCC(F)(F)F)cc3Cl)cc2O1

>  <IC50_nM>
2700

>  <Assay Description>
In vitro binding affinity against human PPARgamma

$$$$
CHEMBL191235
Actelion Java MolfileCreator 2.0

  0  0  0  0  0  0              0 V3000
M  V30 BEGIN CTAB
M  V30 COUNTS 29 30 0 0 0
M  V30 BEGIN ATOM
M  V30 1 O 10.478 -2.2685 0.0 0
M  V30 2 C 9.1682 -3.0247 0.0 0
M  V30 3 C 7.8585 -2.2685 0.0 0
M  V30 4 C 9.1682 -4.5371 0.0 0
M  V30 5 C 7.8585 -0.7561 0.0 0
M  V30 6 C 6.5487 -3.0247 0.0 0
M  V30 7 C 10.6806 -4.5371 0.0 0
M  V30 8 C 9.1682 -6.0495 0.0 0
M  V30 9 C 7.6559 -4.5371 0.0 0
M  V30 10 C 6.5487 0.0 0.0 0
M  V30 11 C 5.239 -2.2685 0.0 0
M  V30 12 C 5.239 -0.7561 0.0 0
M  V30 13 C 6.5487 1.5123 0.0 0
M  V30 14 C 4.1181 -2.9801 0.0 0
M  V30 15 O 3.9292 0.0 0.0 0
M  V30 16 C 7.8585 2.2685 0.0 0
M  V30 17 C 3.9292 -4.5371 0.0 0
M  V30 18 C 2.6195 -0.7561 0.0 0 CFG=2
M  V30 19 C 7.8585 3.7809 0.0 0
M  V30 20 C 2.6195 -5.2933 0.0 0
M  V30 21 C 1.3097 0.0 0.0 0
M  V30 22 C 2.6195 -2.2685 0.0 0
M  V30 23 C 0.0 -0.7561 0.0 0
M  V30 24 C 1.3097 1.5123 0.0 0
M  V30 25 O 3.5711 -3.1092 0.0 0
M  V30 26 O 1.3097 -3.0247 0.0 0
M  V30 27 C -1.3097 0.0 0.0 0
M  V30 28 C 0.0 2.2685 0.0 0
M  V30 29 C -1.3097 1.5123 0.0 0
M  V30 END ATOM
M  V30 BEGIN BOND
M  V30 1 2 1 2
M  V30 2 1 2 3
M  V30 3 1 2 4
M  V30 4 2 3 5
M  V30 5 1 3 6
M  V30 6 1 4 7
M  V30 7 1 4 8
M  V30 8 1 4 9
M  V30 9 1 5 10
M  V30 10 2 6 11
M  V30 11 2 10 12
M  V30 12 1 10 13
M  V30 13 1 11 14
M  V30 14 1 12 15
M  V30 15 1 13 16
M  V30 16 1 14 17
M  V30 17 1 18 15 CFG=1
M  V30 18 1 16 19
M  V30 19 1 17 20
M  V30 20 1 18 21
M  V30 21 1 18 22
M  V30 22 2 21 23
M  V30 23 1 21 24
M  V30 24 2 22 25
M  V30 25 1 22 26
M  V30 26 1 23 27
M  V30 27 2 24 28
M  V30 28 2 27 29
M  V30 29 1 11 12
M  V30 30 1 28 29
M  V30 END BOND
M  V30 BEGIN COLLECTION
M  V30 MDLV30/STERAC1 ATOMS=(1 18)
M  V30 END COLLECTION
M  V30 END CTAB
M  END
>  <Molecule ChEMBL ID>
CHEMBL191235

>  <Smiles>
CCCc1cc(C(=O)C(C)(C)C)cc(CCC)c1OC(C(=O)O)c1ccccc1

>  <IC50_nM>
2700

>  <Assay Description>
In vitro binding affinity for human PPAR gamma

$$$$
CHEMBL383132
Actelion Java MolfileCreator 2.0

  0  0  0  0  0  0              0 V3000
M  V30 BEGIN CTAB
M  V30 COUNTS 36 40 0 0 0
M  V30 BEGIN ATOM
M  V30 1 O 9.5262 -2.9999 0.0 0
M  V30 2 C 8.6602 -3.5 0.0 0
M  V30 3 C 7.7942 -2.9999 0.0 0
M  V30 4 C 8.6602 -4.5 0.0 0
M  V30 5 C 7.7942 -1.9999 0.0 0
M  V30 6 C 6.9282 -3.4999 0.0 0
M  V30 7 C 7.7942 -4.9999 0.0 0
M  V30 8 C 9.5262 -5.0 0.0 0
M  V30 9 C 6.9282 -1.4999 0.0 0
M  V30 10 C 6.0621 -2.9999 0.0 0
M  V30 11 C 7.7942 -5.9999 0.0 0
M  V30 12 C 9.5262 -6.0 0.0 0
M  V30 13 C 6.0621 -1.9999 0.0 0
M  V30 14 C 6.9282 -0.5 0.0 0
M  V30 15 C 8.6602 -6.4999 0.0 0
M  V30 16 C 5.1961 -1.4999 0.0 0
M  V30 17 C 6.0621 0.0 0.0 0
M  V30 18 C 5.1961 -0.5 0.0 0
M  V30 19 O 4.3301 0.0 0.0 0
M  V30 20 C 3.4641 -0.5 0.0 0
M  V30 21 C 2.598 0.0 0.0 0
M  V30 22 C 1.732 -0.5 0.0 0
M  V30 23 O 0.866 0.0 0.0 0
M  V30 24 C 0.0 -0.5 0.0 0
M  V30 25 C 0.0 -1.5 0.0 0
M  V30 26 C -0.866 0.0 0.0 0
M  V30 27 C -0.866 -1.9999 0.0 0
M  V30 28 C 0.7431 -2.1691 0.0 0
M  V30 29 C -1.732 -0.4999 0.0 0
M  V30 30 N -0.6581 -2.9781 0.0 0
M  V30 31 C -1.732 -1.4999 0.0 0
M  V30 32 C 0.3364 -3.0826 0.0 0
M  V30 33 C -1.3272 -3.7212 0.0 0
M  V30 34 C -2.3053 -3.5133 0.0 0
M  V30 35 O -2.6144 -2.5623 0.0 0
M  V30 36 O -2.9745 -4.2565 0.0 0
M  V30 END ATOM
M  V30 BEGIN BOND
M  V30 1 2 1 2
M  V30 2 1 2 3
M  V30 3 1 2 4
M  V30 4 2 3 5
M  V30 5 1 3 6
M  V30 6 2 4 7
M  V30 7 1 4 8
M  V30 8 1 5 9
M  V30 9 2 6 10
M  V30 10 1 7 11
M  V30 11 2 8 12
M  V30 12 1 9 13
M  V30 13 2 9 14
M  V30 14 2 11 15
M  V30 15 2 13 16
M  V30 16 1 14 17
M  V30 17 1 16 18
M  V30 18 1 18 19
M  V30 19 1 19 20
M  V30 20 1 20 21
M  V30 21 1 21 22
M  V30 22 1 22 23
M  V30 23 1 23 24
M  V30 24 2 24 25
M  V30 25 1 24 26
M  V30 26 1 25 27
M  V30 27 1 25 28
M  V30 28 2 26 29
M  V30 29 1 27 30
M  V30 30 2 27 31
M  V30 31 2 28 32
M  V30 32 1 30 33
M  V30 33 1 33 34
M  V30 34 2 34 35
M  V30 35 1 34 36
M  V30 36 1 10 13
M  V30 37 1 12 15
M  V30 38 2 17 18
M  V30 39 1 29 31
M  V30 40 1 30 32
M  V30 END BOND
M  V30 END CTAB
M  END
>  <Molecule ChEMBL ID>
CHEMBL383132

>  <Smiles>
O=C(O)Cn1ccc2c(OCCCOc3ccc4cc(C(=O)c5ccccc5)ccc4c3)cccc21

>  <IC50_nM>
2707

>  <Assay Description>
Displacement of [3H]rosiglitazone from human PPAR gamma by SPA assay

$$$$
CHEMBL1091218
Actelion Java MolfileCreator 2.0

  0  0  0  0  0  0              0 V3000
M  V30 BEGIN CTAB
M  V30 COUNTS 40 43 0 0 0
M  V30 BEGIN ATOM
M  V30 1 F 7.2382 10.8626 0.0 0
M  V30 2 C 8.0472 10.2749 0.0 0
M  V30 3 F 8.635 11.0839 0.0 0
M  V30 4 F 8.8563 9.6871 0.0 0
M  V30 5 C 7.4595 9.4658 0.0 0
M  V30 6 C 6.4649 9.5704 0.0 0
M  V30 7 C 7.8662 8.5523 0.0 0
M  V30 8 C 5.8772 8.7614 0.0 0
M  V30 9 C 7.2784 7.7433 0.0 0
M  V30 10 C 6.2839 7.8478 0.0 0
M  V30 11 C 5.6961 7.0388 0.0 0
M  V30 12 O 4.6961 7.0388 0.0 0
M  V30 13 N 6.0051 6.0877 0.0 0
M  V30 14 C 4.3871 6.0877 0.0 0
M  V30 15 C 5.1961 5.5 0.0 0
M  V30 16 C 3.436 5.7787 0.0 0
M  V30 17 C 5.1961 4.5 0.0 0
M  V30 18 O 4.3301 4.0 0.0 0
M  V30 19 C 4.3301 3.0 0.0 0
M  V30 20 C 3.4641 2.5 0.0 0
M  V30 21 C 5.1961 2.5 0.0 0
M  V30 22 C 3.4641 1.5 0.0 0
M  V30 23 C 5.1961 1.5 0.0 0
M  V30 24 C 4.3301 1.0 0.0 0
M  V30 25 C 2.598 1.0 0.0 0
M  V30 26 N 2.598 0.0 0.0 0
M  V30 27 C 3.4641 -0.5 0.0 0
M  V30 28 C 1.732 -0.5 0.0 0
M  V30 29 O 3.4641 -1.5 0.0 0
M  V30 30 O 4.3301 0.0 0.0 0
M  V30 31 C 0.866 0.0 0.0 0
M  V30 32 C 5.1961 -0.5 0.0 0
M  V30 33 O 0.866 1.0 0.0 0
M  V30 34 O 0.0 -0.5 0.0 0
M  V30 35 C 5.1961 -1.5 0.0 0
M  V30 36 C 6.0621 0.0 0.0 0
M  V30 37 C 6.0621 -2.0 0.0 0
M  V30 38 C 6.9282 -0.5 0.0 0
M  V30 39 C 6.9282 -1.5 0.0 0
M  V30 40 C 7.7942 -2.0 0.0 0
M  V30 END ATOM
M  V30 BEGIN BOND
M  V30 1 1 1 2
M  V30 2 1 2 3
M  V30 3 1 2 4
M  V30 4 1 2 5
M  V30 5 2 5 6
M  V30 6 1 5 7
M  V30 7 1 6 8
M  V30 8 2 7 9
M  V30 9 2 8 10
M  V30 10 1 10 11
M  V30 11 1 11 12
M  V30 12 2 11 13
M  V30 13 1 12 14
M  V30 14 1 13 15
M  V30 15 1 14 16
M  V30 16 1 15 17
M  V30 17 1 17 18
M  V30 18 1 18 19
M  V30 19 2 19 20
M  V30 20 1 19 21
M  V30 21 1 20 22
M  V30 22 2 21 23
M  V30 23 2 22 24
M  V30 24 1 22 25
M  V30 25 1 25 26
M  V30 26 1 26 27
M  V30 27 1 26 28
M  V30 28 2 27 29
M  V30 29 1 27 30
M  V30 30 1 28 31
M  V30 31 1 30 32
M  V30 32 2 31 33
M  V30 33 1 31 34
M  V30 34 2 32 35
M  V30 35 1 32 36
M  V30 36 1 35 37
M  V30 37 2 36 38
M  V30 38 2 37 39
M  V30 39 1 39 40
M  V30 40 1 9 10
M  V30 41 2 14 15
M  V30 42 1 23 24
M  V30 43 1 38 39
M  V30 END BOND
M  V30 END CTAB
M  END
>  <Molecule ChEMBL ID>
CHEMBL1091218

>  <Smiles>
Cc1ccc(OC(=O)N(CC(=O)O)Cc2cccc(OCc3nc(-c4ccc(C(F)(F)F)cc4)oc3C)c2)cc1

>  <IC50_nM>
2737

>  <Assay Description>
Binding affinity to human His-tagged PPARgamma LBD (Q203-Y477) expressed in Escherichia coli BL21 (DE3) by fluorescence polarization assay

$$$$
CHEMBL364467
Actelion Java MolfileCreator 2.0

  0  0  0  0  0  0              0 V3000
M  V30 BEGIN CTAB
M  V30 COUNTS 27 28 0 0 0
M  V30 BEGIN ATOM
M  V30 1 O 3.9475 -3.0388 0.0 0
M  V30 2 C 2.6316 -2.2791 0.0 0
M  V30 3 O 1.6124 -2.8015 0.0 0
M  V30 4 C 2.6316 -0.7597 0.0 0 CFG=2
M  V30 5 O 1.3158 0.0 0.0 0
M  V30 6 C 3.9475 0.0 0.0 0
M  V30 7 C 0.0 -0.7597 0.0 0
M  V30 8 C 3.9475 1.5194 0.0 0
M  V30 9 C 5.2633 -0.7597 0.0 0
M  V30 10 C -1.3158 0.0 0.0 0
M  V30 11 C 0.0 -2.2791 0.0 0
M  V30 12 C 5.2633 2.2791 0.0 0
M  V30 13 C 6.5792 0.0 0.0 0
M  V30 14 C -2.6316 -0.7597 0.0 0
M  V30 15 C -1.3158 1.5194 0.0 0
M  V30 16 C -1.3158 -3.0388 0.0 0
M  V30 17 C 1.1675 -3.1574 0.0 0
M  V30 18 C 6.5792 1.5194 0.0 0
M  V30 19 C -2.6316 -2.2791 0.0 0
M  V30 20 C 0.0 2.2791 0.0 0
M  V30 21 C 1.3158 -4.5582 0.0 0
M  V30 22 C -3.9475 -3.0388 0.0 0
M  V30 23 C 0.0 3.7985 0.0 0
M  V30 24 C 0.0 -5.3179 0.0 0
M  V30 25 O -3.9475 -4.5582 0.0 0
M  V30 26 C -5.2633 -2.2791 0.0 0
M  V30 27 C -6.5792 -3.0388 0.0 0
M  V30 END ATOM
M  V30 BEGIN BOND
M  V30 1 2 1 2
M  V30 2 1 2 3
M  V30 3 1 2 4
M  V30 4 1 4 5 CFG=3
M  V30 5 1 4 6
M  V30 6 1 5 7
M  V30 7 2 6 8
M  V30 8 1 6 9
M  V30 9 2 7 10
M  V30 10 1 7 11
M  V30 11 1 8 12
M  V30 12 2 9 13
M  V30 13 1 10 14
M  V30 14 1 10 15
M  V30 15 2 11 16
M  V30 16 1 11 17
M  V30 17 2 12 18
M  V30 18 2 14 19
M  V30 19 1 15 20
M  V30 20 1 17 21
M  V30 21 1 19 22
M  V30 22 1 20 23
M  V30 23 1 21 24
M  V30 24 2 22 25
M  V30 25 1 22 26
M  V30 26 1 26 27
M  V30 27 1 13 18
M  V30 28 1 16 19
M  V30 END BOND
M  V30 BEGIN COLLECTION
M  V30 MDLV30/STERAC1 ATOMS=(1 4)
M  V30 END COLLECTION
M  V30 END CTAB
M  END
>  <Molecule ChEMBL ID>
CHEMBL364467

>  <Smiles>
CCCc1cc(C(=O)CC)cc(CCC)c1OC(C(=O)O)c1ccccc1

>  <IC50_nM>
2760

>  <Assay Description>
In vitro binding affinity for human PPAR gamma

$$$$
CHEMBL1089210
Actelion Java MolfileCreator 2.0

  0  0  0  0  0  0              0 V3000
M  V30 BEGIN CTAB
M  V30 COUNTS 37 40 0 0 0
M  V30 BEGIN ATOM
M  V30 1 Cl 12.0709 15.4123 0.0 0
M  V30 2 C 11.1892 14.1988 0.0 0
M  V30 3 C 9.6974 14.3556 0.0 0
M  V30 4 C 11.7993 12.8285 0.0 0
M  V30 5 C 8.8158 13.1421 0.0 0
M  V30 6 C 10.9176 11.6149 0.0 0
M  V30 7 C 9.4259 11.7717 0.0 0
M  V30 8 C 8.5442 10.5582 0.0 0
M  V30 9 O 7.0442 10.5582 0.0 0
M  V30 10 N 9.0077 9.1316 0.0 0
M  V30 11 C 6.5807 9.1316 0.0 0
M  V30 12 C 7.7942 8.25 0.0 0
M  V30 13 C 5.1541 8.6681 0.0 0
M  V30 14 C 7.7942 6.75 0.0 0
M  V30 15 O 6.4951 6.0 0.0 0
M  V30 16 C 6.4951 4.5 0.0 0
M  V30 17 C 5.1961 3.75 0.0 0
M  V30 18 C 7.7942 3.75 0.0 0
M  V30 19 C 5.1961 2.25 0.0 0
M  V30 20 C 7.7942 2.25 0.0 0
M  V30 21 C 6.4951 1.5 0.0 0
M  V30 22 C 3.8971 1.5 0.0 0
M  V30 23 N 3.8971 0.0 0.0 0
M  V30 24 C 5.1961 -0.75 0.0 0
M  V30 25 C 2.598 -0.75 0.0 0
M  V30 26 O 5.1961 -2.25 0.0 0
M  V30 27 O 6.4951 0.0 0.0 0
M  V30 28 C 1.299 0.0 0.0 0
M  V30 29 C 7.7942 -0.75 0.0 0
M  V30 30 O 1.299 1.5 0.0 0
M  V30 31 O 0.0 -0.75 0.0 0
M  V30 32 C 7.7942 -2.25 0.0 0
M  V30 33 C 9.0932 0.0 0.0 0
M  V30 34 C 9.0932 -3.0 0.0 0
M  V30 35 C 10.3923 -0.75 0.0 0
M  V30 36 C 10.3923 -2.25 0.0 0
M  V30 37 C 11.6913 -3.0 0.0 0
M  V30 END ATOM
M  V30 BEGIN BOND
M  V30 1 1 1 2
M  V30 2 2 2 3
M  V30 3 1 2 4
M  V30 4 1 3 5
M  V30 5 2 4 6
M  V30 6 2 5 7
M  V30 7 1 7 8
M  V30 8 1 8 9
M  V30 9 2 8 10
M  V30 10 1 9 11
M  V30 11 1 10 12
M  V30 12 1 11 13
M  V30 13 1 12 14
M  V30 14 1 14 15
M  V30 15 1 15 16
M  V30 16 2 16 17
M  V30 17 1 16 18
M  V30 18 1 17 19
M  V30 19 2 18 20
M  V30 20 2 19 21
M  V30 21 1 19 22
M  V30 22 1 22 23
M  V30 23 1 23 24
M  V30 24 1 23 25
M  V30 25 2 24 26
M  V30 26 1 24 27
M  V30 27 1 25 28
M  V30 28 1 27 29
M  V30 29 2 28 30
M  V30 30 1 28 31
M  V30 31 2 29 32
M  V30 32 1 29 33
M  V30 33 1 32 34
M  V30 34 2 33 35
M  V30 35 2 34 36
M  V30 36 1 36 37
M  V30 37 1 6 7
M  V30 38 2 11 12
M  V30 39 1 20 21
M  V30 40 1 35 36
M  V30 END BOND
M  V30 END CTAB
M  END
>  <Molecule ChEMBL ID>
CHEMBL1089210

>  <Smiles>
Cc1ccc(OC(=O)N(CC(=O)O)Cc2cccc(OCc3nc(-c4ccc(Cl)cc4)oc3C)c2)cc1

>  <IC50_nM>
2789

>  <Assay Description>
Binding affinity to human His-tagged PPARgamma LBD (Q203-Y477) expressed in Escherichia coli BL21 (DE3) by fluorescence polarization assay

$$$$
CHEMBL476897
Actelion Java MolfileCreator 2.0

  0  0  0  0  0  0              0 V3000
M  V30 BEGIN CTAB
M  V30 COUNTS 38 42 0 0 0
M  V30 BEGIN ATOM
M  V30 1 O 3.4641 -0.5 0.0 0
M  V30 2 C 2.598 0.0 0.0 0
M  V30 3 O 2.598 1.0 0.0 0
M  V30 4 C 1.732 -0.5 0.0 0 CFG=1
M  V30 5 C 1.732 -1.5 0.0 0
M  V30 6 C 0.866 0.0 0.0 0
M  V30 7 C 0.866 -1.9999 0.0 0
M  V30 8 C 2.598 -2.0 0.0 0
M  V30 9 C 0.0 -0.5 0.0 0
M  V30 10 C 0.866 -2.9999 0.0 0
M  V30 11 C 2.598 -3.0 0.0 0
M  V30 12 C -0.866 0.0 0.0 0
M  V30 13 C 0.0 -1.4999 0.0 0
M  V30 14 C 0.0 -3.4999 0.0 0
M  V30 15 C 1.732 -3.5 0.0 0
M  V30 16 C -1.732 -0.4999 0.0 0
M  V30 17 C -0.866 -1.9999 0.0 0
M  V30 18 C -0.866 -2.9999 0.0 0
M  V30 19 C 0.0 -4.4999 0.0 0
M  V30 20 C -1.732 -1.4999 0.0 0
M  V30 21 C -1.732 -3.4999 0.0 0
M  V30 22 C -0.866 -4.9999 0.0 0
M  V30 23 C -2.598 -1.9999 0.0 0
M  V30 24 C -1.732 -4.4999 0.0 0
M  V30 25 C -3.4641 -2.4999 0.0 0
M  V30 26 C -4.3301 -2.9999 0.0 0
M  V30 27 C -4.3301 -3.9999 0.0 0
M  V30 28 N -5.1391 -4.5877 0.0 0
M  V30 29 C -3.5211 -4.5877 0.0 0
M  V30 30 C -4.8301 -5.5388 0.0 0
M  V30 31 O -3.8301 -5.5388 0.0 0
M  V30 32 C -2.57 -4.2787 0.0 0
M  V30 33 C -5.4179 -6.3478 0.0 0
M  V30 34 C -6.4124 -6.2433 0.0 0
M  V30 35 C -5.0111 -7.2614 0.0 0
M  V30 36 C -7.0002 -7.0523 0.0 0
M  V30 37 C -5.5989 -8.0704 0.0 0
M  V30 38 C -6.5934 -7.9658 0.0 0
M  V30 END ATOM
M  V30 BEGIN BOND
M  V30 1 2 1 2
M  V30 2 1 2 3
M  V30 3 1 2 4
M  V30 4 1 4 5
M  V30 5 1 4 6 CFG=1
M  V30 6 2 5 7
M  V30 7 1 5 8
M  V30 8 1 6 9
M  V30 9 1 7 10
M  V30 10 2 8 11
M  V30 11 2 9 12
M  V30 12 1 9 13
M  V30 13 1 10 14
M  V30 14 2 10 15
M  V30 15 1 12 16
M  V30 16 2 13 17
M  V30 17 2 14 18
M  V30 18 1 14 19
M  V30 19 2 16 20
M  V30 20 1 18 21
M  V30 21 2 19 22
M  V30 22 1 20 23
M  V30 23 2 21 24
M  V30 24 3 23 25
M  V30 25 1 25 26
M  V30 26 1 26 27
M  V30 27 1 27 28
M  V30 28 2 27 29
M  V30 29 2 28 30
M  V30 30 1 29 31
M  V30 31 1 29 32
M  V30 32 1 30 33
M  V30 33 2 33 34
M  V30 34 1 33 35
M  V30 35 1 34 36
M  V30 36 2 35 37
M  V30 37 2 36 38
M  V30 38 1 11 15
M  V30 39 1 17 20
M  V30 40 1 22 24
M  V30 41 1 30 31
M  V30 42 1 37 38
M  V30 END BOND
M  V30 BEGIN COLLECTION
M  V30 MDLV30/STERAC1 ATOMS=(1 4)
M  V30 END COLLECTION
M  V30 END CTAB
M  END
>  <Molecule ChEMBL ID>
CHEMBL476897

>  <Smiles>
Cc1oc(-c2ccccc2)nc1CC#Cc1ccc(CC(C(=O)O)c2cccc(-c3ccccc3)c2)cc1

>  <IC50_nM>
2800

>  <Assay Description>
Displacement of [3H]darglitazone from human PPARgamma by scintillation proximity assay

$$$$
CHEMBL477298
Actelion Java MolfileCreator 2.0

  0  0  0  0  0  0              0 V3000
M  V30 BEGIN CTAB
M  V30 COUNTS 38 42 0 0 0
M  V30 BEGIN ATOM
M  V30 1 O 6.9282 -4.5 0.0 0
M  V30 2 C 6.9282 -3.5 0.0 0
M  V30 3 O 7.7942 -3.0 0.0 0
M  V30 4 C 6.0621 -3.0 0.0 0 CFG=1
M  V30 5 C 5.1961 -3.5 0.0 0
M  V30 6 C 6.0621 -1.9999 0.0 0
M  V30 7 C 4.3301 -2.9999 0.0 0
M  V30 8 C 5.1961 -4.5 0.0 0
M  V30 9 C 5.1961 -1.4999 0.0 0
M  V30 10 C 3.4641 -3.4999 0.0 0
M  V30 11 C 4.3301 -4.9999 0.0 0
M  V30 12 C 5.1961 -0.5 0.0 0
M  V30 13 C 4.3301 -1.9999 0.0 0
M  V30 14 C 2.598 -2.9999 0.0 0
M  V30 15 C 3.4641 -4.4999 0.0 0
M  V30 16 C 4.3301 0.0 0.0 0
M  V30 17 C 3.4641 -1.5 0.0 0
M  V30 18 C 2.598 -1.9999 0.0 0
M  V30 19 C 1.732 -3.4999 0.0 0
M  V30 20 C 3.4641 -0.5 0.0 0
M  V30 21 C 1.732 -1.4999 0.0 0
M  V30 22 C 0.866 -2.9999 0.0 0
M  V30 23 C 2.598 0.0 0.0 0
M  V30 24 C 0.866 -1.9999 0.0 0
M  V30 25 C 1.732 -0.5 0.0 0
M  V30 26 C 0.866 0.0 0.0 0
M  V30 27 C 0.0 -0.5 0.0 0
M  V30 28 N -0.1045 -1.4945 0.0 0
M  V30 29 C -0.9135 -0.0932 0.0 0
M  V30 30 C -1.0826 -1.7024 0.0 0
M  V30 31 O -1.5826 -0.8364 0.0 0
M  V30 32 C -1.1214 0.8848 0.0 0
M  V30 33 C -1.4894 -2.6159 0.0 0
M  V30 34 C -0.9016 -3.4249 0.0 0
M  V30 35 C -2.4839 -2.7205 0.0 0
M  V30 36 C -1.3083 -4.3385 0.0 0
M  V30 37 C -2.8906 -3.634 0.0 0
M  V30 38 C -2.3028 -4.443 0.0 0
M  V30 END ATOM
M  V30 BEGIN BOND
M  V30 1 2 1 2
M  V30 2 1 2 3
M  V30 3 1 2 4
M  V30 4 1 4 5
M  V30 5 1 4 6 CFG=1
M  V30 6 2 5 7
M  V30 7 1 5 8
M  V30 8 1 6 9
M  V30 9 1 7 10
M  V30 10 2 8 11
M  V30 11 2 9 12
M  V30 12 1 9 13
M  V30 13 1 10 14
M  V30 14 2 10 15
M  V30 15 1 12 16
M  V30 16 2 13 17
M  V30 17 2 14 18
M  V30 18 1 14 19
M  V30 19 2 16 20
M  V30 20 1 18 21
M  V30 21 2 19 22
M  V30 22 1 20 23
M  V30 23 2 21 24
M  V30 24 1 23 25
M  V30 25 1 25 26
M  V30 26 1 26 27
M  V30 27 1 27 28
M  V30 28 2 27 29
M  V30 29 2 28 30
M  V30 30 1 29 31
M  V30 31 1 29 32
M  V30 32 1 30 33
M  V30 33 2 33 34
M  V30 34 1 33 35
M  V30 35 1 34 36
M  V30 36 2 35 37
M  V30 37 2 36 38
M  V30 38 1 11 15
M  V30 39 1 17 20
M  V30 40 1 22 24
M  V30 41 1 30 31
M  V30 42 1 37 38
M  V30 END BOND
M  V30 BEGIN COLLECTION
M  V30 MDLV30/STERAC1 ATOMS=(1 4)
M  V30 END COLLECTION
M  V30 END CTAB
M  END
>  <Molecule ChEMBL ID>
CHEMBL477298

>  <Smiles>
Cc1oc(-c2ccccc2)nc1CCCc1ccc(CC(C(=O)O)c2cccc(-c3ccccc3)c2)cc1

>  <IC50_nM>
2800

>  <Assay Description>
Displacement of [3H]darglitazone from human PPARgamma by scintillation proximity assay

$$$$
CHEMBL447190
Actelion Java MolfileCreator 2.0

  0  0  0  0  0  0              0 V3000
M  V30 BEGIN CTAB
M  V30 COUNTS 31 33 0 0 0
M  V30 BEGIN ATOM
M  V30 1 Cl 6.0621 1.0 0.0 0
M  V30 2 C 6.0621 0.0 0.0 0
M  V30 3 C 5.1961 -0.5 0.0 0
M  V30 4 C 6.9282 -0.4999 0.0 0
M  V30 5 O 4.3301 0.0 0.0 0
M  V30 6 C 5.1961 -1.4999 0.0 0
M  V30 7 C 6.9282 -1.4999 0.0 0
M  V30 8 C 3.4641 -0.5 0.0 0
M  V30 9 C 6.0621 -1.9999 0.0 0
M  V30 10 C 7.7942 -1.9999 0.0 0
M  V30 11 C 2.598 0.0 0.0 0
M  V30 12 C 8.2942 -1.1339 0.0 0
M  V30 13 C 8.6602 -2.4999 0.0 0
M  V30 14 C 7.2942 -2.866 0.0 0
M  V30 15 C 1.732 -0.5 0.0 0
M  V30 16 O 0.866 0.0 0.0 0
M  V30 17 C 0.0 -0.5 0.0 0
M  V30 18 C -0.866 0.0 0.0 0
M  V30 19 C 0.0 -1.4999 0.0 0
M  V30 20 C -1.732 -0.4999 0.0 0
M  V30 21 C -0.866 -1.9999 0.0 0
M  V30 22 O -2.598 0.0 0.0 0
M  V30 23 C -1.732 -1.4999 0.0 0
M  V30 24 C -3.4641 -0.4999 0.0 0 CFG=1
M  V30 25 C -2.598 -1.9999 0.0 0
M  V30 26 C -3.4641 0.5 0.0 0
M  V30 27 C -3.4641 -1.4999 0.0 0
M  V30 28 C -4.3301 0.0 0.0 0
M  V30 29 O -4.3301 1.0 0.0 0
M  V30 30 O -2.598 1.0 0.0 0
M  V30 31 C -5.1961 -0.4999 0.0 0
M  V30 END ATOM
M  V30 BEGIN BOND
M  V30 1 1 1 2
M  V30 2 2 2 3
M  V30 3 1 2 4
M  V30 4 1 3 5
M  V30 5 1 3 6
M  V30 6 2 4 7
M  V30 7 1 5 8
M  V30 8 2 6 9
M  V30 9 1 7 10
M  V30 10 1 8 11
M  V30 11 1 10 12
M  V30 12 1 10 13
M  V30 13 1 10 14
M  V30 14 1 11 15
M  V30 15 1 15 16
M  V30 16 1 16 17
M  V30 17 2 17 18
M  V30 18 1 17 19
M  V30 19 1 18 20
M  V30 20 2 19 21
M  V30 21 1 20 22
M  V30 22 2 20 23
M  V30 23 1 22 24
M  V30 24 1 23 25
M  V30 25 1 24 26 CFG=3
M  V30 26 1 24 27
M  V30 27 1 24 28
M  V30 28 2 26 29
M  V30 29 1 26 30
M  V30 30 1 28 31
M  V30 31 1 7 9
M  V30 32 1 21 23
M  V30 33 1 25 27
M  V30 END BOND
M  V30 BEGIN COLLECTION
M  V30 MDLV30/STEABS ATOMS=(1 24)
M  V30 END COLLECTION
M  V30 END CTAB
M  END
>  <Molecule ChEMBL ID>
CHEMBL447190

>  <Smiles>
CC[C@]1(C(=O)O)CCc2ccc(OCCCOc3ccc(C(C)(C)C)cc3Cl)cc2O1

>  <IC50_nM>
2800

>  <Assay Description>
In vitro binding affinity against human PPARgamma

$$$$
CHEMBL1990669
Actelion Java MolfileCreator 2.0

  0  0  0  0  0  0              0 V3000
M  V30 BEGIN CTAB
M  V30 COUNTS 35 38 0 0 0
M  V30 BEGIN ATOM
M  V30 1 Cl 6.0621 -3.0 0.0 0
M  V30 2 C 6.0621 -2.0 0.0 0
M  V30 3 C 6.9282 -1.5 0.0 0
M  V30 4 C 5.1961 -1.4999 0.0 0
M  V30 5 Cl 7.7942 -2.0 0.0 0
M  V30 6 C 6.9282 -0.5 0.0 0
M  V30 7 C 5.1961 -0.5 0.0 0
M  V30 8 C 6.0621 0.0 0.0 0
M  V30 9 N 4.3301 0.0 0.0 0
M  V30 10 C 3.4641 -0.5 0.0 0
M  V30 11 O 3.4641 -1.5 0.0 0
M  V30 12 C 2.598 0.0 0.0 0
M  V30 13 O 2.598 1.0 0.0 0
M  V30 14 C 1.732 -0.5 0.0 0
M  V30 15 C 0.866 0.0 0.0 0
M  V30 16 O 0.866 1.0 0.0 0
M  V30 17 C 0.0 -0.5 0.0 0
M  V30 18 C -0.866 0.0 0.0 0
M  V30 19 C 0.0 -1.4999 0.0 0
M  V30 20 N -0.866 1.0 0.0 0
M  V30 21 C -1.732 -0.4999 0.0 0
M  V30 22 C -0.866 -1.9999 0.0 0
M  V30 23 C -1.732 1.5 0.0 0
M  V30 24 C -1.732 -1.4999 0.0 0
M  V30 25 C -1.732 2.5 0.0 0
M  V30 26 C -2.598 1.0 0.0 0
M  V30 27 C -2.598 3.0 0.0 0
M  V30 28 C -0.866 3.0 0.0 0
M  V30 29 C -3.4641 1.5 0.0 0
M  V30 30 C -3.4641 2.5 0.0 0
M  V30 31 C -2.598 4.0 0.0 0
M  V30 32 C -0.866 4.0 0.0 0
M  V30 33 O -4.3301 1.0 0.0 0
M  V30 34 O -4.3301 3.0 0.0 0
M  V30 35 C -1.732 4.5 0.0 0
M  V30 END ATOM
M  V30 BEGIN BOND
M  V30 1 1 1 2
M  V30 2 2 2 3
M  V30 3 1 2 4
M  V30 4 1 3 5
M  V30 5 1 3 6
M  V30 6 2 4 7
M  V30 7 2 6 8
M  V30 8 1 7 9
M  V30 9 1 9 10
M  V30 10 2 10 11
M  V30 11 1 10 12
M  V30 12 2 12 13
M  V30 13 1 12 14
M  V30 14 1 14 15
M  V30 15 2 15 16
M  V30 16 1 15 17
M  V30 17 2 17 18
M  V30 18 1 17 19
M  V30 19 1 18 20
M  V30 20 1 18 21
M  V30 21 2 19 22
M  V30 22 1 20 23
M  V30 23 2 21 24
M  V30 24 1 23 25
M  V30 25 2 23 26
M  V30 26 2 25 27
M  V30 27 1 25 28
M  V30 28 1 26 29
M  V30 29 1 27 30
M  V30 30 1 27 31
M  V30 31 2 28 32
M  V30 32 2 29 33
M  V30 33 2 30 34
M  V30 34 2 31 35
M  V30 35 1 7 8
M  V30 36 1 22 24
M  V30 37 1 29 30
M  V30 38 1 32 35
M  V30 END BOND
M  V30 END CTAB
M  END
>  <Molecule ChEMBL ID>
CHEMBL1990669

>  <Smiles>
O=C1C=C(Nc2ccccc2C(=O)CC(=O)C(=O)Nc2ccc(Cl)c(Cl)c2)c2ccccc2C1=O

>  <IC50_nM>
2800

>  <Assay Description>
Antagonist activity at PPARgamma (unknown origin) expressed in human LNCaP cells assessed as suppression of pioglitazone-induced PPAR response element driven firefly luciferase activity measured after 24 hrs by dual luciferase reporter assay

$$$$
CHEMBL3398464
Actelion Java MolfileCreator 2.0

  0  0  0  0  0  0              0 V3000
M  V30 BEGIN CTAB
M  V30 COUNTS 36 39 0 0 0
M  V30 BEGIN ATOM
M  V30 1 O 9.9121 0.1816 0.0 0
M  V30 2 C 9.5054 -0.7318 0.0 0
M  V30 3 O 10.0931 -1.5408 0.0 0
M  V30 4 N 8.5108 -0.8364 0.0 0
M  V30 5 C 9.6864 -2.4544 0.0 0
M  V30 6 C 7.8417 -0.0932 0.0 0
M  V30 7 C 8.0108 -1.7024 0.0 0
M  V30 8 C 10.2742 -3.2634 0.0 0
M  V30 9 C 6.9282 -0.4999 0.0 0 CFG=2
M  V30 10 C 7.0327 -1.4945 0.0 0 CFG=1
M  V30 11 C 6.0621 0.0 0.0 0
M  V30 12 C 6.2895 -2.1636 0.0 0
M  V30 13 C 5.1961 -0.5 0.0 0
M  V30 14 C 6.4974 -3.1418 0.0 0
M  V30 15 C 4.3301 0.0 0.0 0
M  V30 16 C 5.1961 -1.4999 0.0 0
M  V30 17 O 7.4485 -3.4508 0.0 0
M  V30 18 O 5.7543 -3.8109 0.0 0
M  V30 19 C 3.4641 -0.5 0.0 0
M  V30 20 C 4.3301 -1.9999 0.0 0
M  V30 21 O 2.598 0.0 0.0 0
M  V30 22 C 3.4641 -1.4999 0.0 0
M  V30 23 C 1.732 -0.5 0.0 0
M  V30 24 C 0.866 0.0 0.0 0
M  V30 25 C 0.0 -0.5 0.0 0
M  V30 26 N -0.9135 -0.0932 0.0 0
M  V30 27 C -0.1045 -1.4945 0.0 0
M  V30 28 C -1.5826 -0.8364 0.0 0
M  V30 29 O -1.0826 -1.7024 0.0 0
M  V30 30 C 0.6386 -2.1636 0.0 0
M  V30 31 C -2.5771 -0.7318 0.0 0
M  V30 32 C -2.9839 0.1816 0.0 0
M  V30 33 C -3.1649 -1.5408 0.0 0
M  V30 34 C -3.9784 0.2861 0.0 0
M  V30 35 C -4.1595 -1.4363 0.0 0
M  V30 36 C -4.5662 -0.5228 0.0 0
M  V30 END ATOM
M  V30 BEGIN BOND
M  V30 1 2 1 2
M  V30 2 1 2 3
M  V30 3 1 2 4
M  V30 4 1 3 5
M  V30 5 1 4 6
M  V30 6 1 4 7
M  V30 7 1 5 8
M  V30 8 1 6 9
M  V30 9 1 7 10
M  V30 10 1 9 11 CFG=3
M  V30 11 1 10 12 CFG=3
M  V30 12 1 11 13
M  V30 13 1 12 14
M  V30 14 2 13 15
M  V30 15 1 13 16
M  V30 16 2 14 17
M  V30 17 1 14 18
M  V30 18 1 15 19
M  V30 19 2 16 20
M  V30 20 1 19 21
M  V30 21 2 19 22
M  V30 22 1 21 23
M  V30 23 1 23 24
M  V30 24 1 24 25
M  V30 25 1 25 26
M  V30 26 2 25 27
M  V30 27 2 26 28
M  V30 28 1 27 29
M  V30 29 1 27 30
M  V30 30 1 28 31
M  V30 31 2 31 32
M  V30 32 1 31 33
M  V30 33 1 32 34
M  V30 34 2 33 35
M  V30 35 2 34 36
M  V30 36 1 9 10
M  V30 37 1 20 22
M  V30 38 1 28 29
M  V30 39 1 35 36
M  V30 END BOND
M  V30 BEGIN COLLECTION
M  V30 MDLV30/STEABS ATOMS=(2 9 10)
M  V30 END COLLECTION
M  V30 END CTAB
M  END
>  <Molecule ChEMBL ID>
CHEMBL3398464

>  <Smiles>
CCOC(=O)N1C[C@@H](Cc2cccc(OCCc3nc(-c4ccccc4)oc3C)c2)[C@@H](CC(=O)O)C1

>  <IC50_nM>
2830

>  <Assay Description>
Binding affinity to PPARgamma (unknown origin) using fluorescein-tagged dual PPARalpha/gamma activator by homogeneous fluorescence polarization binding assay

$$$$
CHEMBL435343
Actelion Java MolfileCreator 2.0

  0  0  0  0  0  0              0 V3000
M  V30 BEGIN CTAB
M  V30 COUNTS 28 30 0 0 0
M  V30 BEGIN ATOM
M  V30 1 Cl 6.0621 1.0 0.0 0
M  V30 2 C 6.0621 0.0 0.0 0
M  V30 3 C 5.1961 -0.5 0.0 0
M  V30 4 C 6.9282 -0.4999 0.0 0
M  V30 5 O 4.3301 0.0 0.0 0
M  V30 6 C 5.1961 -1.4999 0.0 0
M  V30 7 C 6.9282 -1.4999 0.0 0
M  V30 8 C 3.4641 -0.5 0.0 0
M  V30 9 C 6.0621 -1.9999 0.0 0
M  V30 10 Cl 7.7942 -1.9999 0.0 0
M  V30 11 C 2.598 0.0 0.0 0
M  V30 12 C 1.732 -0.5 0.0 0
M  V30 13 O 0.866 0.0 0.0 0
M  V30 14 C 0.0 -0.5 0.0 0
M  V30 15 C -0.866 0.0 0.0 0
M  V30 16 C 0.0 -1.4999 0.0 0
M  V30 17 C -1.732 -0.4999 0.0 0
M  V30 18 C -0.866 -1.9999 0.0 0
M  V30 19 O -2.598 0.0 0.0 0
M  V30 20 C -1.732 -1.4999 0.0 0
M  V30 21 C -3.4641 -0.4999 0.0 0 CFG=1
M  V30 22 C -2.598 -1.9999 0.0 0
M  V30 23 C -3.4641 0.5 0.0 0
M  V30 24 C -3.4641 -1.4999 0.0 0
M  V30 25 C -4.3301 0.0 0.0 0
M  V30 26 O -4.3301 1.0 0.0 0
M  V30 27 O -2.598 1.0 0.0 0
M  V30 28 C -5.1961 -0.4999 0.0 0
M  V30 END ATOM
M  V30 BEGIN BOND
M  V30 1 1 1 2
M  V30 2 2 2 3
M  V30 3 1 2 4
M  V30 4 1 3 5
M  V30 5 1 3 6
M  V30 6 2 4 7
M  V30 7 1 5 8
M  V30 8 2 6 9
M  V30 9 1 7 10
M  V30 10 1 8 11
M  V30 11 1 11 12
M  V30 12 1 12 13
M  V30 13 1 13 14
M  V30 14 2 14 15
M  V30 15 1 14 16
M  V30 16 1 15 17
M  V30 17 2 16 18
M  V30 18 1 17 19
M  V30 19 2 17 20
M  V30 20 1 19 21
M  V30 21 1 20 22
M  V30 22 1 21 23 CFG=3
M  V30 23 1 21 24
M  V30 24 1 21 25
M  V30 25 2 23 26
M  V30 26 1 23 27
M  V30 27 1 25 28
M  V30 28 1 7 9
M  V30 29 1 18 20
M  V30 30 1 22 24
M  V30 END BOND
M  V30 BEGIN COLLECTION
M  V30 MDLV30/STEABS ATOMS=(1 21)
M  V30 END COLLECTION
M  V30 END CTAB
M  END
>  <Molecule ChEMBL ID>
CHEMBL435343

>  <Smiles>
CC[C@]1(C(=O)O)CCc2ccc(OCCCOc3ccc(Cl)cc3Cl)cc2O1

>  <IC50_nM>
2897.34

>  <Assay Description>
Agonist activity at PPARgamma

$$$$
CHEMBL207019
Actelion Java MolfileCreator 2.0

  0  0  0  0  0  0              0 V3000
M  V30 BEGIN CTAB
M  V30 COUNTS 32 34 0 0 0
M  V30 BEGIN ATOM
M  V30 1 F 9.1393 -2.451 0.0 0
M  V30 2 C 8.1882 -2.76 0.0 0
M  V30 3 F 8.4972 -3.7111 0.0 0
M  V30 4 F 7.2372 -3.069 0.0 0
M  V30 5 C 7.8792 -1.809 0.0 0
M  V30 6 N 8.467 -1.0 0.0 0
M  V30 7 C 6.9282 -1.5 0.0 0
M  V30 8 O 7.8792 -0.1909 0.0 0
M  V30 9 C 6.9282 -0.5 0.0 0
M  V30 10 C 6.0621 -2.0 0.0 0
M  V30 11 C 6.0621 0.0 0.0 0
M  V30 12 C 5.1961 -1.4999 0.0 0
M  V30 13 C 5.1961 -0.5 0.0 0
M  V30 14 C 6.0621 0.9999 0.0 0
M  V30 15 O 4.3301 0.0 0.0 0
M  V30 16 C 6.9282 1.4999 0.0 0
M  V30 17 C 3.4641 -0.5 0.0 0
M  V30 18 C 6.9282 2.4999 0.0 0
M  V30 19 C 2.598 0.0 0.0 0
M  V30 20 C 1.732 -0.5 0.0 0
M  V30 21 N 0.866 0.0 0.0 0
M  V30 22 C 0.866 1.0 0.0 0
M  V30 23 C 0.0 -0.5 0.0 0
M  V30 24 C 1.732 1.5 0.0 0
M  V30 25 C 0.0 1.4999 0.0 0
M  V30 26 C 1.732 2.5 0.0 0
M  V30 27 C 0.0 2.4999 0.0 0
M  V30 28 C 0.866 3.0 0.0 0
M  V30 29 C 0.866 3.9999 0.0 0
M  V30 30 C 1.732 4.5 0.0 0
M  V30 31 O 2.598 4.0 0.0 0
M  V30 32 O 1.732 5.5 0.0 0
M  V30 END ATOM
M  V30 BEGIN BOND
M  V30 1 1 1 2
M  V30 2 1 2 3
M  V30 3 1 2 4
M  V30 4 1 2 5
M  V30 5 2 5 6
M  V30 6 1 5 7
M  V30 7 1 6 8
M  V30 8 2 7 9
M  V30 9 1 7 10
M  V30 10 1 9 11
M  V30 11 2 10 12
M  V30 12 2 11 13
M  V30 13 1 11 14
M  V30 14 1 13 15
M  V30 15 1 14 16
M  V30 16 1 15 17
M  V30 17 1 16 18
M  V30 18 1 17 19
M  V30 19 1 19 20
M  V30 20 1 20 21
M  V30 21 1 21 22
M  V30 22 1 21 23
M  V30 23 2 22 24
M  V30 24 1 22 25
M  V30 25 1 24 26
M  V30 26 2 25 27
M  V30 27 2 26 28
M  V30 28 1 28 29
M  V30 29 1 29 30
M  V30 30 2 30 31
M  V30 31 1 30 32
M  V30 32 1 8 9
M  V30 33 1 12 13
M  V30 34 1 27 28
M  V30 END BOND
M  V30 END CTAB
M  END
>  <Molecule ChEMBL ID>
CHEMBL207019

>  <Smiles>
CCCc1c(OCCCN(C)c2ccc(CC(=O)O)cc2)ccc2c(C(F)(F)F)noc12

>  <IC50_nM>
2897.34

>  <Assay Description>
Agonist activity at PPARgamma

$$$$
CHEMBL435343
Actelion Java MolfileCreator 2.0

  0  0  0  0  0  0              0 V3000
M  V30 BEGIN CTAB
M  V30 COUNTS 28 30 0 0 0
M  V30 BEGIN ATOM
M  V30 1 Cl 6.0621 1.0 0.0 0
M  V30 2 C 6.0621 0.0 0.0 0
M  V30 3 C 5.1961 -0.5 0.0 0
M  V30 4 C 6.9282 -0.4999 0.0 0
M  V30 5 O 4.3301 0.0 0.0 0
M  V30 6 C 5.1961 -1.4999 0.0 0
M  V30 7 C 6.9282 -1.4999 0.0 0
M  V30 8 C 3.4641 -0.5 0.0 0
M  V30 9 C 6.0621 -1.9999 0.0 0
M  V30 10 Cl 7.7942 -1.9999 0.0 0
M  V30 11 C 2.598 0.0 0.0 0
M  V30 12 C 1.732 -0.5 0.0 0
M  V30 13 O 0.866 0.0 0.0 0
M  V30 14 C 0.0 -0.5 0.0 0
M  V30 15 C -0.866 0.0 0.0 0
M  V30 16 C 0.0 -1.4999 0.0 0
M  V30 17 C -1.732 -0.4999 0.0 0
M  V30 18 C -0.866 -1.9999 0.0 0
M  V30 19 O -2.598 0.0 0.0 0
M  V30 20 C -1.732 -1.4999 0.0 0
M  V30 21 C -3.4641 -0.4999 0.0 0 CFG=1
M  V30 22 C -2.598 -1.9999 0.0 0
M  V30 23 C -3.4641 0.5 0.0 0
M  V30 24 C -3.4641 -1.4999 0.0 0
M  V30 25 C -4.3301 0.0 0.0 0
M  V30 26 O -4.3301 1.0 0.0 0
M  V30 27 O -2.598 1.0 0.0 0
M  V30 28 C -5.1961 -0.4999 0.0 0
M  V30 END ATOM
M  V30 BEGIN BOND
M  V30 1 1 1 2
M  V30 2 2 2 3
M  V30 3 1 2 4
M  V30 4 1 3 5
M  V30 5 1 3 6
M  V30 6 2 4 7
M  V30 7 1 5 8
M  V30 8 2 6 9
M  V30 9 1 7 10
M  V30 10 1 8 11
M  V30 11 1 11 12
M  V30 12 1 12 13
M  V30 13 1 13 14
M  V30 14 2 14 15
M  V30 15 1 14 16
M  V30 16 1 15 17
M  V30 17 2 16 18
M  V30 18 1 17 19
M  V30 19 2 17 20
M  V30 20 1 19 21
M  V30 21 1 20 22
M  V30 22 1 21 23 CFG=3
M  V30 23 1 21 24
M  V30 24 1 21 25
M  V30 25 2 23 26
M  V30 26 1 23 27
M  V30 27 1 25 28
M  V30 28 1 7 9
M  V30 29 1 18 20
M  V30 30 1 22 24
M  V30 END BOND
M  V30 BEGIN COLLECTION
M  V30 MDLV30/STEABS ATOMS=(1 21)
M  V30 END COLLECTION
M  V30 END CTAB
M  END
>  <Molecule ChEMBL ID>
CHEMBL435343

>  <Smiles>
CC[C@]1(C(=O)O)CCc2ccc(OCCCOc3ccc(Cl)cc3Cl)cc2O1

>  <IC50_nM>
2900

>  <Assay Description>
In vitro binding affinity against human PPARgamma

$$$$
CHEMBL361166
Actelion Java MolfileCreator 2.0

  0  0  0  0  0  0              0 V3000
M  V30 BEGIN CTAB
M  V30 COUNTS 30 32 0 0 0
M  V30 BEGIN ATOM
M  V30 1 Cl 9.0932 1.5 0.0 0
M  V30 2 C 9.0932 0.0 0.0 0
M  V30 3 C 7.7942 -0.75 0.0 0
M  V30 4 C 10.3923 -0.7499 0.0 0
M  V30 5 O 6.4951 0.0 0.0 0
M  V30 6 C 7.7942 -2.25 0.0 0
M  V30 7 C 10.3923 -2.2499 0.0 0
M  V30 8 C 5.1961 -0.75 0.0 0
M  V30 9 C 9.0932 -2.9999 0.0 0
M  V30 10 C 11.6913 -2.9999 0.0 0
M  V30 11 C 3.8971 0.0 0.0 0
M  V30 12 C 11.6913 -4.4999 0.0 0
M  V30 13 C 12.9903 -2.2499 0.0 0
M  V30 14 C 2.598 -0.75 0.0 0
M  V30 15 O 1.299 0.0 0.0 0
M  V30 16 C 0.0 -0.75 0.0 0
M  V30 17 C -1.299 0.0 0.0 0
M  V30 18 C 0.0 -2.2499 0.0 0
M  V30 19 C -2.598 -0.7499 0.0 0
M  V30 20 C -1.299 -2.9999 0.0 0
M  V30 21 O -3.8971 0.0 0.0 0
M  V30 22 C -2.598 -2.2499 0.0 0
M  V30 23 C -5.1961 -0.7499 0.0 0 CFG=1
M  V30 24 C -3.8971 -2.9999 0.0 0
M  V30 25 C -5.1961 0.75 0.0 0
M  V30 26 C -5.1961 -2.2499 0.0 0
M  V30 27 C -6.4951 0.0 0.0 0
M  V30 28 O -6.4951 1.5 0.0 0
M  V30 29 O -3.8971 1.5 0.0 0
M  V30 30 C -7.7942 -0.7499 0.0 0
M  V30 END ATOM
M  V30 BEGIN BOND
M  V30 1 1 1 2
M  V30 2 2 2 3
M  V30 3 1 2 4
M  V30 4 1 3 5
M  V30 5 1 3 6
M  V30 6 2 4 7
M  V30 7 1 5 8
M  V30 8 2 6 9
M  V30 9 1 7 10
M  V30 10 1 8 11
M  V30 11 1 10 12
M  V30 12 1 10 13
M  V30 13 1 11 14
M  V30 14 1 14 15
M  V30 15 1 15 16
M  V30 16 2 16 17
M  V30 17 1 16 18
M  V30 18 1 17 19
M  V30 19 2 18 20
M  V30 20 1 19 21
M  V30 21 2 19 22
M  V30 22 1 21 23
M  V30 23 1 22 24
M  V30 24 1 23 25 CFG=3
M  V30 25 1 23 26
M  V30 26 1 23 27
M  V30 27 2 25 28
M  V30 28 1 25 29
M  V30 29 1 27 30
M  V30 30 1 7 9
M  V30 31 1 20 22
M  V30 32 1 24 26
M  V30 END BOND
M  V30 BEGIN COLLECTION
M  V30 MDLV30/STEABS ATOMS=(1 23)
M  V30 END COLLECTION
M  V30 END CTAB
M  END
>  <Molecule ChEMBL ID>
CHEMBL361166

>  <Smiles>
CC[C@]1(C(=O)O)CCc2ccc(OCCCOc3ccc(C(C)C)cc3Cl)cc2O1

>  <IC50_nM>
2900

>  <Assay Description>
In vitro binding affinity against human PPARgamma

$$$$
CHEMBL207019
Actelion Java MolfileCreator 2.0

  0  0  0  0  0  0              0 V3000
M  V30 BEGIN CTAB
M  V30 COUNTS 32 34 0 0 0
M  V30 BEGIN ATOM
M  V30 1 F 9.1393 -2.451 0.0 0
M  V30 2 C 8.1882 -2.76 0.0 0
M  V30 3 F 8.4972 -3.7111 0.0 0
M  V30 4 F 7.2372 -3.069 0.0 0
M  V30 5 C 7.8792 -1.809 0.0 0
M  V30 6 N 8.467 -1.0 0.0 0
M  V30 7 C 6.9282 -1.5 0.0 0
M  V30 8 O 7.8792 -0.1909 0.0 0
M  V30 9 C 6.9282 -0.5 0.0 0
M  V30 10 C 6.0621 -2.0 0.0 0
M  V30 11 C 6.0621 0.0 0.0 0
M  V30 12 C 5.1961 -1.4999 0.0 0
M  V30 13 C 5.1961 -0.5 0.0 0
M  V30 14 C 6.0621 0.9999 0.0 0
M  V30 15 O 4.3301 0.0 0.0 0
M  V30 16 C 6.9282 1.4999 0.0 0
M  V30 17 C 3.4641 -0.5 0.0 0
M  V30 18 C 6.9282 2.4999 0.0 0
M  V30 19 C 2.598 0.0 0.0 0
M  V30 20 C 1.732 -0.5 0.0 0
M  V30 21 N 0.866 0.0 0.0 0
M  V30 22 C 0.866 1.0 0.0 0
M  V30 23 C 0.0 -0.5 0.0 0
M  V30 24 C 1.732 1.5 0.0 0
M  V30 25 C 0.0 1.4999 0.0 0
M  V30 26 C 1.732 2.5 0.0 0
M  V30 27 C 0.0 2.4999 0.0 0
M  V30 28 C 0.866 3.0 0.0 0
M  V30 29 C 0.866 3.9999 0.0 0
M  V30 30 C 1.732 4.5 0.0 0
M  V30 31 O 2.598 4.0 0.0 0
M  V30 32 O 1.732 5.5 0.0 0
M  V30 END ATOM
M  V30 BEGIN BOND
M  V30 1 1 1 2
M  V30 2 1 2 3
M  V30 3 1 2 4
M  V30 4 1 2 5
M  V30 5 2 5 6
M  V30 6 1 5 7
M  V30 7 1 6 8
M  V30 8 2 7 9
M  V30 9 1 7 10
M  V30 10 1 9 11
M  V30 11 2 10 12
M  V30 12 2 11 13
M  V30 13 1 11 14
M  V30 14 1 13 15
M  V30 15 1 14 16
M  V30 16 1 15 17
M  V30 17 1 16 18
M  V30 18 1 17 19
M  V30 19 1 19 20
M  V30 20 1 20 21
M  V30 21 1 21 22
M  V30 22 1 21 23
M  V30 23 2 22 24
M  V30 24 1 22 25
M  V30 25 1 24 26
M  V30 26 2 25 27
M  V30 27 2 26 28
M  V30 28 1 28 29
M  V30 29 1 29 30
M  V30 30 2 30 31
M  V30 31 1 30 32
M  V30 32 1 8 9
M  V30 33 1 12 13
M  V30 34 1 27 28
M  V30 END BOND
M  V30 END CTAB
M  END
>  <Molecule ChEMBL ID>
CHEMBL207019

>  <Smiles>
CCCc1c(OCCCN(C)c2ccc(CC(=O)O)cc2)ccc2c(C(F)(F)F)noc12

>  <IC50_nM>
2900

>  <Assay Description>
Agonist activity at PPARgamma

$$$$
CHEMBL245674
Actelion Java MolfileCreator 2.0

  0  0  0  0  0  0              0 V3000
M  V30 BEGIN CTAB
M  V30 COUNTS 34 37 0 0 0
M  V30 BEGIN ATOM
M  V30 1 O 5.1961 2.25 0.0 0
M  V30 2 C 3.8971 1.5 0.0 0
M  V30 3 O 2.598 2.25 0.0 0
M  V30 4 C 3.8971 0.0 0.0 0
M  V30 5 N 2.598 -0.75 0.0 0
M  V30 6 C 2.598 -2.25 0.0 0
M  V30 7 C 1.299 0.0 0.0 0
M  V30 8 C 3.8971 -3.0 0.0 0
M  V30 9 C 0.0 -0.75 0.0 0
M  V30 10 N 3.8971 -4.5 0.0 0
M  V30 11 C 5.1961 -2.25 0.0 0
M  V30 12 C -1.299 0.0 0.0 0
M  V30 13 C 0.0 -2.25 0.0 0
M  V30 14 C 5.1961 -5.25 0.0 0
M  V30 15 C 6.4951 -3.0 0.0 0
M  V30 16 C -2.598 -0.7499 0.0 0
M  V30 17 C -1.299 -2.9999 0.0 0
M  V30 18 C 6.4951 -4.5 0.0 0
M  V30 19 C -2.598 -2.2499 0.0 0
M  V30 20 O -3.8971 -2.9999 0.0 0
M  V30 21 C -3.8971 -4.4999 0.0 0
M  V30 22 C -5.1961 -5.2499 0.0 0
M  V30 23 C -5.1961 -6.7499 0.0 0
M  V30 24 N -6.4096 -7.6316 0.0 0
M  V30 25 C -3.9826 -7.6316 0.0 0
M  V30 26 C -5.9461 -9.0582 0.0 0
M  V30 27 O -4.4461 -9.0582 0.0 0
M  V30 28 C -2.556 -7.1681 0.0 0
M  V30 29 C -6.8278 -10.2717 0.0 0
M  V30 30 C -8.3196 -10.1149 0.0 0
M  V30 31 C -6.2177 -11.6421 0.0 0
M  V30 32 C -9.2012 -11.3285 0.0 0
M  V30 33 C -7.0994 -12.8556 0.0 0
M  V30 34 C -8.5911 -12.6988 0.0 0
M  V30 END ATOM
M  V30 BEGIN BOND
M  V30 1 2 1 2
M  V30 2 1 2 3
M  V30 3 1 2 4
M  V30 4 1 4 5
M  V30 5 1 5 6
M  V30 6 1 5 7
M  V30 7 1 6 8
M  V30 8 1 7 9
M  V30 9 2 8 10
M  V30 10 1 8 11
M  V30 11 2 9 12
M  V30 12 1 9 13
M  V30 13 1 10 14
M  V30 14 2 11 15
M  V30 15 1 12 16
M  V30 16 2 13 17
M  V30 17 2 14 18
M  V30 18 2 16 19
M  V30 19 1 19 20
M  V30 20 1 20 21
M  V30 21 1 21 22
M  V30 22 1 22 23
M  V30 23 1 23 24
M  V30 24 2 23 25
M  V30 25 2 24 26
M  V30 26 1 25 27
M  V30 27 1 25 28
M  V30 28 1 26 29
M  V30 29 2 29 30
M  V30 30 1 29 31
M  V30 31 1 30 32
M  V30 32 2 31 33
M  V30 33 2 32 34
M  V30 34 1 15 18
M  V30 35 1 17 19
M  V30 36 1 26 27
M  V30 37 1 33 34
M  V30 END BOND
M  V30 END CTAB
M  END
>  <Molecule ChEMBL ID>
CHEMBL245674

>  <Smiles>
Cc1oc(-c2ccccc2)nc1CCOc1ccc(CN(CC(=O)O)Cc2ccccn2)cc1

>  <IC50_nM>
2900

>  <Assay Description>
Displacement of fluorescein labeled ligand from PPARgamma receptor by fluorescence polarization assay

$$$$
CHEMBL207019
Actelion Java MolfileCreator 2.0

  0  0  0  0  0  0              0 V3000
M  V30 BEGIN CTAB
M  V30 COUNTS 32 34 0 0 0
M  V30 BEGIN ATOM
M  V30 1 F 9.1393 -2.451 0.0 0
M  V30 2 C 8.1882 -2.76 0.0 0
M  V30 3 F 8.4972 -3.7111 0.0 0
M  V30 4 F 7.2372 -3.069 0.0 0
M  V30 5 C 7.8792 -1.809 0.0 0
M  V30 6 N 8.467 -1.0 0.0 0
M  V30 7 C 6.9282 -1.5 0.0 0
M  V30 8 O 7.8792 -0.1909 0.0 0
M  V30 9 C 6.9282 -0.5 0.0 0
M  V30 10 C 6.0621 -2.0 0.0 0
M  V30 11 C 6.0621 0.0 0.0 0
M  V30 12 C 5.1961 -1.4999 0.0 0
M  V30 13 C 5.1961 -0.5 0.0 0
M  V30 14 C 6.0621 0.9999 0.0 0
M  V30 15 O 4.3301 0.0 0.0 0
M  V30 16 C 6.9282 1.4999 0.0 0
M  V30 17 C 3.4641 -0.5 0.0 0
M  V30 18 C 6.9282 2.4999 0.0 0
M  V30 19 C 2.598 0.0 0.0 0
M  V30 20 C 1.732 -0.5 0.0 0
M  V30 21 N 0.866 0.0 0.0 0
M  V30 22 C 0.866 1.0 0.0 0
M  V30 23 C 0.0 -0.5 0.0 0
M  V30 24 C 1.732 1.5 0.0 0
M  V30 25 C 0.0 1.4999 0.0 0
M  V30 26 C 1.732 2.5 0.0 0
M  V30 27 C 0.0 2.4999 0.0 0
M  V30 28 C 0.866 3.0 0.0 0
M  V30 29 C 0.866 3.9999 0.0 0
M  V30 30 C 1.732 4.5 0.0 0
M  V30 31 O 2.598 4.0 0.0 0
M  V30 32 O 1.732 5.5 0.0 0
M  V30 END ATOM
M  V30 BEGIN BOND
M  V30 1 1 1 2
M  V30 2 1 2 3
M  V30 3 1 2 4
M  V30 4 1 2 5
M  V30 5 2 5 6
M  V30 6 1 5 7
M  V30 7 1 6 8
M  V30 8 2 7 9
M  V30 9 1 7 10
M  V30 10 1 9 11
M  V30 11 2 10 12
M  V30 12 2 11 13
M  V30 13 1 11 14
M  V30 14 1 13 15
M  V30 15 1 14 16
M  V30 16 1 15 17
M  V30 17 1 16 18
M  V30 18 1 17 19
M  V30 19 1 19 20
M  V30 20 1 20 21
M  V30 21 1 21 22
M  V30 22 1 21 23
M  V30 23 2 22 24
M  V30 24 1 22 25
M  V30 25 1 24 26
M  V30 26 2 25 27
M  V30 27 2 26 28
M  V30 28 1 28 29
M  V30 29 1 29 30
M  V30 30 2 30 31
M  V30 31 1 30 32
M  V30 32 1 8 9
M  V30 33 1 12 13
M  V30 34 1 27 28
M  V30 END BOND
M  V30 END CTAB
M  END
>  <Molecule ChEMBL ID>
CHEMBL207019

>  <Smiles>
CCCc1c(OCCCN(C)c2ccc(CC(=O)O)cc2)ccc2c(C(F)(F)F)noc12

>  <IC50_nM>
2900

>  <Assay Description>
Inhibition of PPAR gamma

$$$$
CHEMBL435343
Actelion Java MolfileCreator 2.0

  0  0  0  0  0  0              0 V3000
M  V30 BEGIN CTAB
M  V30 COUNTS 28 30 0 0 0
M  V30 BEGIN ATOM
M  V30 1 Cl 6.0621 1.0 0.0 0
M  V30 2 C 6.0621 0.0 0.0 0
M  V30 3 C 5.1961 -0.5 0.0 0
M  V30 4 C 6.9282 -0.4999 0.0 0
M  V30 5 O 4.3301 0.0 0.0 0
M  V30 6 C 5.1961 -1.4999 0.0 0
M  V30 7 C 6.9282 -1.4999 0.0 0
M  V30 8 C 3.4641 -0.5 0.0 0
M  V30 9 C 6.0621 -1.9999 0.0 0
M  V30 10 Cl 7.7942 -1.9999 0.0 0
M  V30 11 C 2.598 0.0 0.0 0
M  V30 12 C 1.732 -0.5 0.0 0
M  V30 13 O 0.866 0.0 0.0 0
M  V30 14 C 0.0 -0.5 0.0 0
M  V30 15 C -0.866 0.0 0.0 0
M  V30 16 C 0.0 -1.4999 0.0 0
M  V30 17 C -1.732 -0.4999 0.0 0
M  V30 18 C -0.866 -1.9999 0.0 0
M  V30 19 O -2.598 0.0 0.0 0
M  V30 20 C -1.732 -1.4999 0.0 0
M  V30 21 C -3.4641 -0.4999 0.0 0 CFG=1
M  V30 22 C -2.598 -1.9999 0.0 0
M  V30 23 C -3.4641 0.5 0.0 0
M  V30 24 C -3.4641 -1.4999 0.0 0
M  V30 25 C -4.3301 0.0 0.0 0
M  V30 26 O -4.3301 1.0 0.0 0
M  V30 27 O -2.598 1.0 0.0 0
M  V30 28 C -5.1961 -0.4999 0.0 0
M  V30 END ATOM
M  V30 BEGIN BOND
M  V30 1 1 1 2
M  V30 2 2 2 3
M  V30 3 1 2 4
M  V30 4 1 3 5
M  V30 5 1 3 6
M  V30 6 2 4 7
M  V30 7 1 5 8
M  V30 8 2 6 9
M  V30 9 1 7 10
M  V30 10 1 8 11
M  V30 11 1 11 12
M  V30 12 1 12 13
M  V30 13 1 13 14
M  V30 14 2 14 15
M  V30 15 1 14 16
M  V30 16 1 15 17
M  V30 17 2 16 18
M  V30 18 1 17 19
M  V30 19 2 17 20
M  V30 20 1 19 21
M  V30 21 1 20 22
M  V30 22 1 21 23 CFG=3
M  V30 23 1 21 24
M  V30 24 1 21 25
M  V30 25 2 23 26
M  V30 26 1 23 27
M  V30 27 1 25 28
M  V30 28 1 7 9
M  V30 29 1 18 20
M  V30 30 1 22 24
M  V30 END BOND
M  V30 BEGIN COLLECTION
M  V30 MDLV30/STEABS ATOMS=(1 21)
M  V30 END COLLECTION
M  V30 END CTAB
M  END
>  <Molecule ChEMBL ID>
CHEMBL435343

>  <Smiles>
CC[C@]1(C(=O)O)CCc2ccc(OCCCOc3ccc(Cl)cc3Cl)cc2O1

>  <IC50_nM>
2900

>  <Assay Description>
Agonist activity at PPARgamma

$$$$
CHEMBL3596272
Actelion Java MolfileCreator 2.0

  0  0  0  0  0  0              0 V3000
M  V30 BEGIN CTAB
M  V30 COUNTS 29 32 0 0 0
M  V30 BEGIN ATOM
M  V30 1 Cl 2.598 0.9999 0.0 0
M  V30 2 C 1.732 1.4999 0.0 0
M  V30 3 C 0.866 0.9999 0.0 0
M  V30 4 C 1.732 2.4999 0.0 0
M  V30 5 C 0.0 1.5 0.0 0
M  V30 6 C 0.866 0.0 0.0 0
M  V30 7 C 0.866 3.0 0.0 0
M  V30 8 F -0.866 1.0 0.0 0
M  V30 9 C 0.0 2.5 0.0 0
M  V30 10 O 1.732 -0.5 0.0 0
M  V30 11 C 0.0 -0.5 0.0 0
M  V30 12 N -0.9135 -0.0932 0.0 0
M  V30 13 N -0.1045 -1.4945 0.0 0
M  V30 14 C -1.5826 -0.8364 0.0 0
M  V30 15 C -1.0826 -1.7024 0.0 0
M  V30 16 C 0.5646 -2.2376 0.0 0
M  V30 17 C -2.5771 -0.7318 0.0 0
M  V30 18 C -1.3916 -2.6534 0.0 0
M  V30 19 C 0.2555 -3.1887 0.0 0
M  V30 20 C -2.9839 0.1816 0.0 0
M  V30 21 C -3.1649 -1.5408 0.0 0
M  V30 22 C -0.7225 -3.3966 0.0 0
M  V30 23 F -2.3961 0.9906 0.0 0
M  V30 24 C -3.9784 0.2861 0.0 0
M  V30 25 C -4.1595 -1.4363 0.0 0
M  V30 26 C -4.5662 -0.5228 0.0 0
M  V30 27 C -5.5607 -0.4182 0.0 0
M  V30 28 O -5.9675 0.4952 0.0 0
M  V30 29 O -6.1485 -1.2273 0.0 0
M  V30 END ATOM
M  V30 BEGIN BOND
M  V30 1 1 1 2
M  V30 2 2 2 3
M  V30 3 1 2 4
M  V30 4 1 3 5
M  V30 5 1 3 6
M  V30 6 2 4 7
M  V30 7 1 5 8
M  V30 8 2 5 9
M  V30 9 2 6 10
M  V30 10 1 6 11
M  V30 11 2 11 12
M  V30 12 1 11 13
M  V30 13 1 12 14
M  V30 14 1 13 15
M  V30 15 1 13 16
M  V30 16 1 14 17
M  V30 17 1 15 18
M  V30 18 1 16 19
M  V30 19 2 17 20
M  V30 20 1 17 21
M  V30 21 1 18 22
M  V30 22 1 20 23
M  V30 23 1 20 24
M  V30 24 2 21 25
M  V30 25 2 24 26
M  V30 26 1 26 27
M  V30 27 2 27 28
M  V30 28 1 27 29
M  V30 29 1 7 9
M  V30 30 2 14 15
M  V30 31 1 19 22
M  V30 32 1 25 26
M  V30 END BOND
M  V30 END CTAB
M  END
>  <Molecule ChEMBL ID>
CHEMBL3596272

>  <Smiles>
O=C(O)c1ccc(-c2nc(C(=O)c3c(F)cccc3Cl)n3c2CCCC3)c(F)c1

>  <IC50_nM>
2900

>  <Assay Description>
Displacement of fluormone PPARgamma green from GST-tagged human PPARgamma-LBD after 2 hrs by fluorescence polarization assay

$$$$
CHEMBL109731
Actelion Java MolfileCreator 2.0

  0  0  0  0  0  0              0 V3000
M  V30 BEGIN CTAB
M  V30 COUNTS 34 37 0 0 0
M  V30 BEGIN ATOM
M  V30 1 O 8.6602 -4.4999 0.0 0
M  V30 2 C 8.6602 -3.5 0.0 0
M  V30 3 O 9.5262 -2.9999 0.0 0
M  V30 4 C 7.7942 -2.9999 0.0 0 CFG=1
M  V30 5 O 7.7942 -1.9999 0.0 0
M  V30 6 C 6.9282 -3.4999 0.0 0
M  V30 7 C 6.9282 -1.4999 0.0 0
M  V30 8 C 6.0621 -2.9999 0.0 0
M  V30 9 C 6.0621 -1.9999 0.0 0
M  V30 10 C 6.9282 -0.5 0.0 0
M  V30 11 C 5.1961 -1.4999 0.0 0
M  V30 12 C 6.0621 0.0 0.0 0
M  V30 13 C 5.1961 -0.5 0.0 0
M  V30 14 O 4.3301 0.0 0.0 0
M  V30 15 C 3.4641 -0.5 0.0 0
M  V30 16 C 2.598 0.0 0.0 0
M  V30 17 C 1.732 -0.5 0.0 0
M  V30 18 O 0.866 0.0 0.0 0
M  V30 19 C 0.0 -0.5 0.0 0
M  V30 20 C -0.866 0.0 0.0 0
M  V30 21 C 0.0 -1.4999 0.0 0
M  V30 22 C -1.732 -0.4999 0.0 0
M  V30 23 C -0.866 1.0 0.0 0
M  V30 24 C -0.866 -1.9999 0.0 0
M  V30 25 C -1.732 -1.4999 0.0 0
M  V30 26 C 0.0 1.5 0.0 0
M  V30 27 O -2.598 -1.9999 0.0 0
M  V30 28 C 0.0 2.5 0.0 0
M  V30 29 C -2.598 -2.9999 0.0 0
M  V30 30 C -3.4641 -3.4999 0.0 0
M  V30 31 C -1.732 -3.4999 0.0 0
M  V30 32 C -3.4641 -4.4999 0.0 0
M  V30 33 C -1.732 -4.4999 0.0 0
M  V30 34 C -2.598 -4.9999 0.0 0
M  V30 END ATOM
M  V30 BEGIN BOND
M  V30 1 2 1 2
M  V30 2 1 2 3
M  V30 3 1 4 2 CFG=3
M  V30 4 1 4 5
M  V30 5 1 4 6
M  V30 6 1 5 7
M  V30 7 1 6 8
M  V30 8 2 7 9
M  V30 9 1 7 10
M  V30 10 1 9 11
M  V30 11 2 10 12
M  V30 12 2 11 13
M  V30 13 1 13 14
M  V30 14 1 14 15
M  V30 15 1 15 16
M  V30 16 1 16 17
M  V30 17 1 17 18
M  V30 18 1 18 19
M  V30 19 2 19 20
M  V30 20 1 19 21
M  V30 21 1 20 22
M  V30 22 1 20 23
M  V30 23 2 21 24
M  V30 24 2 22 25
M  V30 25 1 23 26
M  V30 26 1 25 27
M  V30 27 1 26 28
M  V30 28 1 27 29
M  V30 29 2 29 30
M  V30 30 1 29 31
M  V30 31 1 30 32
M  V30 32 2 31 33
M  V30 33 2 32 34
M  V30 34 1 8 9
M  V30 35 1 12 13
M  V30 36 1 24 25
M  V30 37 1 33 34
M  V30 END BOND
M  V30 BEGIN COLLECTION
M  V30 MDLV30/STERAC1 ATOMS=(1 4)
M  V30 END COLLECTION
M  V30 END CTAB
M  END
>  <Molecule ChEMBL ID>
CHEMBL109731

>  <Smiles>
CCCc1cc(Oc2ccccc2)ccc1OCCCOc1ccc2c(c1)CCC(C(=O)O)O2

>  <IC50_nM>
2900

>  <Assay Description>
In vitro binding affinity for human peroxisome proliferator activated receptor gamma using scintillation proximity assay (SPA)

$$$$
CHEMBL200984
Actelion Java MolfileCreator 2.0

  0  0  0  0  0  0              0 V3000
M  V30 BEGIN CTAB
M  V30 COUNTS 33 36 0 0 0
M  V30 BEGIN ATOM
M  V30 1 F 7.7942 -6.0 0.0 0
M  V30 2 C 7.7942 -5.0 0.0 0
M  V30 3 C 8.6602 -4.5 0.0 0
M  V30 4 C 6.9282 -4.5 0.0 0
M  V30 5 C 8.6602 -3.5 0.0 0
M  V30 6 C 6.9282 -3.5 0.0 0
M  V30 7 C 7.7942 -3.0 0.0 0
M  V30 8 C 7.7942 -2.0 0.0 0
M  V30 9 O 8.6602 -1.5 0.0 0
M  V30 10 C 6.9282 -1.5 0.0 0
M  V30 11 C 6.9282 -0.5 0.0 0
M  V30 12 C 6.0621 -2.0 0.0 0
M  V30 13 C 6.0621 0.0 0.0 0
M  V30 14 C 5.1961 -1.5 0.0 0
M  V30 15 C 5.1961 -0.5 0.0 0
M  V30 16 O 4.3301 0.0 0.0 0
M  V30 17 C 3.4641 -0.5 0.0 0
M  V30 18 C 2.598 0.0 0.0 0
M  V30 19 C 1.732 -0.5 0.0 0
M  V30 20 O 0.866 0.0 0.0 0
M  V30 21 C 0.0 -0.5 0.0 0
M  V30 22 C 0.0 -1.5 0.0 0
M  V30 23 C -0.866 0.0 0.0 0
M  V30 24 C -0.866 -1.9999 0.0 0
M  V30 25 C 0.7431 -2.1691 0.0 0
M  V30 26 C -1.732 -0.4999 0.0 0
M  V30 27 N -0.6581 -2.9781 0.0 0
M  V30 28 C -1.732 -1.4999 0.0 0
M  V30 29 C 0.3364 -3.0826 0.0 0
M  V30 30 C -1.3272 -3.7212 0.0 0
M  V30 31 C -2.3053 -3.5133 0.0 0
M  V30 32 O -2.6144 -2.5623 0.0 0
M  V30 33 O -2.9745 -4.2565 0.0 0
M  V30 END ATOM
M  V30 BEGIN BOND
M  V30 1 1 1 2
M  V30 2 2 2 3
M  V30 3 1 2 4
M  V30 4 1 3 5
M  V30 5 2 4 6
M  V30 6 2 5 7
M  V30 7 1 7 8
M  V30 8 2 8 9
M  V30 9 1 8 10
M  V30 10 2 10 11
M  V30 11 1 10 12
M  V30 12 1 11 13
M  V30 13 2 12 14
M  V30 14 2 13 15
M  V30 15 1 15 16
M  V30 16 1 16 17
M  V30 17 1 17 18
M  V30 18 1 18 19
M  V30 19 1 19 20
M  V30 20 1 20 21
M  V30 21 2 21 22
M  V30 22 1 21 23
M  V30 23 1 22 24
M  V30 24 1 22 25
M  V30 25 2 23 26
M  V30 26 1 24 27
M  V30 27 2 24 28
M  V30 28 2 25 29
M  V30 29 1 27 30
M  V30 30 1 30 31
M  V30 31 2 31 32
M  V30 32 1 31 33
M  V30 33 1 6 7
M  V30 34 1 14 15
M  V30 35 1 26 28
M  V30 36 1 27 29
M  V30 END BOND
M  V30 END CTAB
M  END
>  <Molecule ChEMBL ID>
CHEMBL200984

>  <Smiles>
O=C(O)Cn1ccc2c(OCCCOc3ccc(C(=O)c4ccc(F)cc4)cc3)cccc21

>  <IC50_nM>
2960

>  <Assay Description>
Displacement of [3H]rosiglitazone from human PPAR gamma by SPA assay

$$$$
CHEMBL434935
Actelion Java MolfileCreator 2.0

  0  0  0  0  0  0              0 V3000
M  V30 BEGIN CTAB
M  V30 COUNTS 30 31 0 0 0
M  V30 BEGIN ATOM
M  V30 1 O 3.9425 -3.035 0.0 0
M  V30 2 C 2.6283 -2.2762 0.0 0
M  V30 3 O 1.6104 -2.798 0.0 0
M  V30 4 C 2.6283 -0.7587 0.0 0 CFG=2
M  V30 5 O 1.3141 0.0 0.0 0
M  V30 6 C 3.9425 0.0 0.0 0
M  V30 7 C 0.0 -0.7587 0.0 0
M  V30 8 C 3.9425 1.5175 0.0 0
M  V30 9 C 5.2567 -0.7587 0.0 0
M  V30 10 C -1.3141 0.0 0.0 0
M  V30 11 C 0.0 -2.2762 0.0 0
M  V30 12 C 5.2567 2.2762 0.0 0
M  V30 13 C 6.5709 0.0 0.0 0
M  V30 14 C -2.6283 -0.7587 0.0 0
M  V30 15 C -1.3141 1.5175 0.0 0
M  V30 16 C -1.3141 -3.035 0.0 0
M  V30 17 C 1.166 -3.1535 0.0 0
M  V30 18 C 6.5709 1.5175 0.0 0
M  V30 19 C -2.6283 -2.2762 0.0 0
M  V30 20 C 0.0 2.2762 0.0 0
M  V30 21 C 1.3141 -4.5525 0.0 0
M  V30 22 C 7.8851 2.2762 0.0 0
M  V30 23 C -3.9425 -3.035 0.0 0
M  V30 24 C 0.0 3.7937 0.0 0
M  V30 25 C 0.0 -5.3112 0.0 0
M  V30 26 C 7.8851 3.7937 0.0 0
M  V30 27 C 9.1993 1.5175 0.0 0
M  V30 28 O -3.9425 -4.5525 0.0 0
M  V30 29 C -5.2567 -2.2762 0.0 0
M  V30 30 C -6.5709 -3.035 0.0 0
M  V30 END ATOM
M  V30 BEGIN BOND
M  V30 1 2 1 2
M  V30 2 1 2 3
M  V30 3 1 2 4
M  V30 4 1 4 5 CFG=3
M  V30 5 1 4 6
M  V30 6 1 5 7
M  V30 7 2 6 8
M  V30 8 1 6 9
M  V30 9 2 7 10
M  V30 10 1 7 11
M  V30 11 1 8 12
M  V30 12 2 9 13
M  V30 13 1 10 14
M  V30 14 1 10 15
M  V30 15 2 11 16
M  V30 16 1 11 17
M  V30 17 2 12 18
M  V30 18 2 14 19
M  V30 19 1 15 20
M  V30 20 1 17 21
M  V30 21 1 18 22
M  V30 22 1 19 23
M  V30 23 1 20 24
M  V30 24 1 21 25
M  V30 25 1 22 26
M  V30 26 1 22 27
M  V30 27 2 23 28
M  V30 28 1 23 29
M  V30 29 1 29 30
M  V30 30 1 13 18
M  V30 31 1 16 19
M  V30 END BOND
M  V30 BEGIN COLLECTION
M  V30 MDLV30/STEABS ATOMS=(1 4)
M  V30 END COLLECTION
M  V30 END CTAB
M  END
>  <Molecule ChEMBL ID>
CHEMBL434935

>  <Smiles>
CCCc1cc(C(=O)CC)cc(CCC)c1O[C@@H](C(=O)O)c1ccc(C(C)C)cc1

>  <IC50_nM>
2980

>  <Assay Description>
In vitro binding affinity for human PPAR gamma

$$$$
CHEMBL180019
Actelion Java MolfileCreator 2.0

  0  0  0  0  0  0              0 V3000
M  V30 BEGIN CTAB
M  V30 COUNTS 30 32 0 0 0
M  V30 BEGIN ATOM
M  V30 1 Cl 6.0621 1.0 0.0 0
M  V30 2 C 6.0621 0.0 0.0 0
M  V30 3 C 5.1961 -0.5 0.0 0
M  V30 4 C 6.9282 -0.4999 0.0 0
M  V30 5 O 4.3301 0.0 0.0 0
M  V30 6 C 5.1961 -1.4999 0.0 0
M  V30 7 C 6.9282 -1.4999 0.0 0
M  V30 8 C 3.4641 -0.5 0.0 0
M  V30 9 C 6.0621 -1.9999 0.0 0
M  V30 10 C 7.7942 -1.9999 0.0 0
M  V30 11 C 2.598 0.0 0.0 0
M  V30 12 C 7.7942 -2.9999 0.0 0
M  V30 13 C 1.732 -0.5 0.0 0
M  V30 14 C 6.9282 -3.4999 0.0 0
M  V30 15 C 8.6602 -3.4999 0.0 0
M  V30 16 O 0.866 0.0 0.0 0
M  V30 17 C 0.0 -0.5 0.0 0
M  V30 18 C -0.866 0.0 0.0 0
M  V30 19 C 0.0 -1.4999 0.0 0
M  V30 20 C -1.732 -0.4999 0.0 0
M  V30 21 C -0.866 -1.9999 0.0 0
M  V30 22 O -2.598 0.0 0.0 0
M  V30 23 C -1.732 -1.4999 0.0 0
M  V30 24 C -3.4641 -0.4999 0.0 0 CFG=1
M  V30 25 C -2.598 -1.9999 0.0 0
M  V30 26 C -4.3301 0.0 0.0 0
M  V30 27 C -3.4641 -1.4999 0.0 0
M  V30 28 C -4.3301 -0.9999 0.0 0
M  V30 29 O -5.1961 -0.4999 0.0 0
M  V30 30 O -4.3301 1.0 0.0 0
M  V30 END ATOM
M  V30 BEGIN BOND
M  V30 1 1 1 2
M  V30 2 2 2 3
M  V30 3 1 2 4
M  V30 4 1 3 5
M  V30 5 1 3 6
M  V30 6 2 4 7
M  V30 7 1 5 8
M  V30 8 2 6 9
M  V30 9 1 7 10
M  V30 10 1 8 11
M  V30 11 1 10 12
M  V30 12 1 11 13
M  V30 13 1 12 14
M  V30 14 1 12 15
M  V30 15 1 13 16
M  V30 16 1 16 17
M  V30 17 2 17 18
M  V30 18 1 17 19
M  V30 19 1 18 20
M  V30 20 2 19 21
M  V30 21 1 20 22
M  V30 22 2 20 23
M  V30 23 1 22 24
M  V30 24 1 23 25
M  V30 25 1 24 26
M  V30 26 1 24 27
M  V30 27 1 24 28 CFG=1
M  V30 28 2 26 29
M  V30 29 1 26 30
M  V30 30 1 7 9
M  V30 31 1 21 23
M  V30 32 1 25 27
M  V30 END BOND
M  V30 BEGIN COLLECTION
M  V30 MDLV30/STEABS ATOMS=(1 24)
M  V30 END COLLECTION
M  V30 END CTAB
M  END
>  <Molecule ChEMBL ID>
CHEMBL180019

>  <Smiles>
CC(C)Cc1ccc(OCCCOc2ccc3c(c2)O[C@@](C)(C(=O)O)CC3)c(Cl)c1

>  <IC50_nM>
2999.16

>  <Assay Description>
Agonist activity at PPARgamma

$$$$
CHEMBL207442
Actelion Java MolfileCreator 2.0

  0  0  0  0  0  0              0 V3000
M  V30 BEGIN CTAB
M  V30 COUNTS 32 34 0 0 0
M  V30 BEGIN ATOM
M  V30 1 F 9.1393 -2.451 0.0 0
M  V30 2 C 8.1882 -2.76 0.0 0
M  V30 3 F 8.4972 -3.7111 0.0 0
M  V30 4 F 7.2372 -3.069 0.0 0
M  V30 5 C 7.8792 -1.809 0.0 0
M  V30 6 N 8.467 -1.0 0.0 0
M  V30 7 C 6.9282 -1.5 0.0 0
M  V30 8 O 7.8792 -0.1909 0.0 0
M  V30 9 C 6.9282 -0.5 0.0 0
M  V30 10 C 6.0621 -2.0 0.0 0
M  V30 11 C 6.0621 0.0 0.0 0
M  V30 12 C 5.1961 -1.4999 0.0 0
M  V30 13 C 5.1961 -0.5 0.0 0
M  V30 14 C 6.0621 0.9999 0.0 0
M  V30 15 O 4.3301 0.0 0.0 0
M  V30 16 C 6.9282 1.4999 0.0 0
M  V30 17 C 3.4641 -0.5 0.0 0
M  V30 18 C 6.9282 2.4999 0.0 0
M  V30 19 C 2.598 0.0 0.0 0
M  V30 20 C 1.732 -0.5 0.0 0
M  V30 21 N 0.866 0.0 0.0 0
M  V30 22 C 0.866 1.0 0.0 0
M  V30 23 C 0.0 -0.5 0.0 0
M  V30 24 C 1.732 1.5 0.0 0
M  V30 25 C 0.0 1.4999 0.0 0
M  V30 26 C 1.732 2.5 0.0 0
M  V30 27 C 0.0 2.5 0.0 0
M  V30 28 C 0.866 3.0 0.0 0
M  V30 29 C 2.598 3.0 0.0 0
M  V30 30 C 3.4641 2.5 0.0 0
M  V30 31 O 3.4641 1.5 0.0 0
M  V30 32 O 4.3301 3.0 0.0 0
M  V30 END ATOM
M  V30 BEGIN BOND
M  V30 1 1 1 2
M  V30 2 1 2 3
M  V30 3 1 2 4
M  V30 4 1 2 5
M  V30 5 2 5 6
M  V30 6 1 5 7
M  V30 7 1 6 8
M  V30 8 2 7 9
M  V30 9 1 7 10
M  V30 10 1 9 11
M  V30 11 2 10 12
M  V30 12 2 11 13
M  V30 13 1 11 14
M  V30 14 1 13 15
M  V30 15 1 14 16
M  V30 16 1 15 17
M  V30 17 1 16 18
M  V30 18 1 17 19
M  V30 19 1 19 20
M  V30 20 1 20 21
M  V30 21 1 21 22
M  V30 22 1 21 23
M  V30 23 2 22 24
M  V30 24 1 22 25
M  V30 25 1 24 26
M  V30 26 2 25 27
M  V30 27 2 26 28
M  V30 28 1 26 29
M  V30 29 1 29 30
M  V30 30 2 30 31
M  V30 31 1 30 32
M  V30 32 1 8 9
M  V30 33 1 12 13
M  V30 34 1 27 28
M  V30 END BOND
M  V30 END CTAB
M  END
>  <Molecule ChEMBL ID>
CHEMBL207442

>  <Smiles>
CCCc1c(OCCCN(C)c2cccc(CC(=O)O)c2)ccc2c(C(F)(F)F)noc12

>  <IC50_nM>
2999.16

>  <Assay Description>
Agonist activity at PPARgamma

$$$$
CHEMBL301156
Actelion Java MolfileCreator 2.0

  0  0  0  0  0  0              0 V3000
M  V30 BEGIN CTAB
M  V30 COUNTS 35 38 0 0 0
M  V30 BEGIN ATOM
M  V30 1 S 9.5737 1.0932 0.0 0
M  V30 2 C 10.2429 1.8364 0.0 0
M  V30 3 C 8.6602 1.4999 0.0 0 CFG=2
M  V30 4 O 11.2374 1.7318 0.0 0
M  V30 5 N 9.7429 2.7024 0.0 0
M  V30 6 C 7.7942 0.9999 0.0 0
M  V30 7 C 8.7647 2.4945 0.0 0
M  V30 8 C 6.9282 1.4999 0.0 0
M  V30 9 C 7.7942 0.0 0.0 0
M  V30 10 O 8.0216 3.1636 0.0 0
M  V30 11 C 6.0621 0.9999 0.0 0
M  V30 12 C 6.9282 -0.5 0.0 0
M  V30 13 C 6.0621 0.0 0.0 0
M  V30 14 O 5.1961 -0.5 0.0 0
M  V30 15 C 4.3301 0.0 0.0 0
M  V30 16 C 3.4641 -0.5 0.0 0
M  V30 17 C 2.598 0.0 0.0 0
M  V30 18 C 1.732 -0.5 0.0 0
M  V30 19 O 0.866 0.0 0.0 0
M  V30 20 C 0.0 -0.5 0.0 0
M  V30 21 C -0.866 0.0 0.0 0
M  V30 22 C 0.0 -1.4999 0.0 0
M  V30 23 C -1.732 -0.4999 0.0 0
M  V30 24 C -0.866 1.0 0.0 0
M  V30 25 C -0.866 -1.9999 0.0 0
M  V30 26 C -1.732 -1.4999 0.0 0
M  V30 27 C 0.0 1.5 0.0 0
M  V30 28 O -2.598 -1.9999 0.0 0
M  V30 29 C 0.0 2.5 0.0 0
M  V30 30 C -2.598 -2.9999 0.0 0
M  V30 31 C -3.4641 -3.4999 0.0 0
M  V30 32 C -1.732 -3.4999 0.0 0
M  V30 33 C -3.4641 -4.4999 0.0 0
M  V30 34 C -1.732 -4.4999 0.0 0
M  V30 35 C -2.598 -4.9999 0.0 0
M  V30 END ATOM
M  V30 BEGIN BOND
M  V30 1 1 1 2
M  V30 2 1 1 3
M  V30 3 2 2 4
M  V30 4 1 2 5
M  V30 5 1 3 6 CFG=3
M  V30 6 1 3 7
M  V30 7 2 6 8
M  V30 8 1 6 9
M  V30 9 2 7 10
M  V30 10 1 8 11
M  V30 11 2 9 12
M  V30 12 2 11 13
M  V30 13 1 13 14
M  V30 14 1 14 15
M  V30 15 1 15 16
M  V30 16 1 16 17
M  V30 17 1 17 18
M  V30 18 1 18 19
M  V30 19 1 19 20
M  V30 20 2 20 21
M  V30 21 1 20 22
M  V30 22 1 21 23
M  V30 23 1 21 24
M  V30 24 2 22 25
M  V30 25 2 23 26
M  V30 26 1 24 27
M  V30 27 1 26 28
M  V30 28 1 27 29
M  V30 29 1 28 30
M  V30 30 2 30 31
M  V30 31 1 30 32
M  V30 32 1 31 33
M  V30 33 2 32 34
M  V30 34 2 33 35
M  V30 35 1 5 7
M  V30 36 1 12 13
M  V30 37 1 25 26
M  V30 38 1 34 35
M  V30 END BOND
M  V30 BEGIN COLLECTION
M  V30 MDLV30/STERAC1 ATOMS=(1 3)
M  V30 END COLLECTION
M  V30 END CTAB
M  END
>  <Molecule ChEMBL ID>
CHEMBL301156

>  <Smiles>
CCCc1cc(Oc2ccccc2)ccc1OCCCCOc1ccc(C2SC(=O)NC2=O)cc1

>  <IC50_nM>
3000

>  <Assay Description>
In vitro binding affinity against human PPAR gamma (peroxisome proliferator-activated gamma receptor)

$$$$
CHEMBL180019
Actelion Java MolfileCreator 2.0

  0  0  0  0  0  0              0 V3000
M  V30 BEGIN CTAB
M  V30 COUNTS 30 32 0 0 0
M  V30 BEGIN ATOM
M  V30 1 Cl 6.0621 1.0 0.0 0
M  V30 2 C 6.0621 0.0 0.0 0
M  V30 3 C 5.1961 -0.5 0.0 0
M  V30 4 C 6.9282 -0.4999 0.0 0
M  V30 5 O 4.3301 0.0 0.0 0
M  V30 6 C 5.1961 -1.4999 0.0 0
M  V30 7 C 6.9282 -1.4999 0.0 0
M  V30 8 C 3.4641 -0.5 0.0 0
M  V30 9 C 6.0621 -1.9999 0.0 0
M  V30 10 C 7.7942 -1.9999 0.0 0
M  V30 11 C 2.598 0.0 0.0 0
M  V30 12 C 7.7942 -2.9999 0.0 0
M  V30 13 C 1.732 -0.5 0.0 0
M  V30 14 C 6.9282 -3.4999 0.0 0
M  V30 15 C 8.6602 -3.4999 0.0 0
M  V30 16 O 0.866 0.0 0.0 0
M  V30 17 C 0.0 -0.5 0.0 0
M  V30 18 C -0.866 0.0 0.0 0
M  V30 19 C 0.0 -1.4999 0.0 0
M  V30 20 C -1.732 -0.4999 0.0 0
M  V30 21 C -0.866 -1.9999 0.0 0
M  V30 22 O -2.598 0.0 0.0 0
M  V30 23 C -1.732 -1.4999 0.0 0
M  V30 24 C -3.4641 -0.4999 0.0 0 CFG=1
M  V30 25 C -2.598 -1.9999 0.0 0
M  V30 26 C -4.3301 0.0 0.0 0
M  V30 27 C -3.4641 -1.4999 0.0 0
M  V30 28 C -4.3301 -0.9999 0.0 0
M  V30 29 O -5.1961 -0.4999 0.0 0
M  V30 30 O -4.3301 1.0 0.0 0
M  V30 END ATOM
M  V30 BEGIN BOND
M  V30 1 1 1 2
M  V30 2 2 2 3
M  V30 3 1 2 4
M  V30 4 1 3 5
M  V30 5 1 3 6
M  V30 6 2 4 7
M  V30 7 1 5 8
M  V30 8 2 6 9
M  V30 9 1 7 10
M  V30 10 1 8 11
M  V30 11 1 10 12
M  V30 12 1 11 13
M  V30 13 1 12 14
M  V30 14 1 12 15
M  V30 15 1 13 16
M  V30 16 1 16 17
M  V30 17 2 17 18
M  V30 18 1 17 19
M  V30 19 1 18 20
M  V30 20 2 19 21
M  V30 21 1 20 22
M  V30 22 2 20 23
M  V30 23 1 22 24
M  V30 24 1 23 25
M  V30 25 1 24 26
M  V30 26 1 24 27
M  V30 27 1 24 28 CFG=1
M  V30 28 2 26 29
M  V30 29 1 26 30
M  V30 30 1 7 9
M  V30 31 1 21 23
M  V30 32 1 25 27
M  V30 END BOND
M  V30 BEGIN COLLECTION
M  V30 MDLV30/STEABS ATOMS=(1 24)
M  V30 END COLLECTION
M  V30 END CTAB
M  END
>  <Molecule ChEMBL ID>
CHEMBL180019

>  <Smiles>
CC(C)Cc1ccc(OCCCOc2ccc3c(c2)O[C@@](C)(C(=O)O)CC3)c(Cl)c1

>  <IC50_nM>
3000

>  <Assay Description>
In vitro binding affinity against human PPARgamma

$$$$
CHEMBL323008
Actelion Java MolfileCreator 2.0

  0  0  0  0  0  0              0 V3000
M  V30 BEGIN CTAB
M  V30 COUNTS 35 38 0 0 0
M  V30 BEGIN ATOM
M  V30 1 O 11.2583 0.9999 0.0 0
M  V30 2 C 10.3923 1.4999 0.0 0
M  V30 3 O 10.3923 2.4999 0.0 0
M  V30 4 C 9.5262 0.9999 0.0 0 CFG=1
M  V30 5 O 8.6602 1.4999 0.0 0
M  V30 6 C 9.5262 0.0 0.0 0
M  V30 7 C 7.7942 0.9999 0.0 0
M  V30 8 C 8.6602 -0.5 0.0 0
M  V30 9 C 7.7942 0.0 0.0 0
M  V30 10 C 6.9282 1.4999 0.0 0
M  V30 11 C 6.9282 -0.5 0.0 0
M  V30 12 C 6.0621 1.0 0.0 0
M  V30 13 C 6.0621 0.0 0.0 0
M  V30 14 O 5.1961 -0.5 0.0 0
M  V30 15 C 4.3301 0.0 0.0 0
M  V30 16 C 3.4641 -0.5 0.0 0
M  V30 17 C 2.598 0.0 0.0 0
M  V30 18 C 1.732 -0.5 0.0 0
M  V30 19 O 0.866 0.0 0.0 0
M  V30 20 C 0.0 -0.5 0.0 0
M  V30 21 C -0.866 0.0 0.0 0
M  V30 22 C 0.0 -1.4999 0.0 0
M  V30 23 C -1.732 -0.4999 0.0 0
M  V30 24 C -0.866 1.0 0.0 0
M  V30 25 C -0.866 -1.9999 0.0 0
M  V30 26 C -1.732 -1.4999 0.0 0
M  V30 27 C 0.0 1.5 0.0 0
M  V30 28 O -2.598 -1.9999 0.0 0
M  V30 29 C 0.0 2.5 0.0 0
M  V30 30 C -2.598 -2.9999 0.0 0
M  V30 31 C -3.4641 -3.4999 0.0 0
M  V30 32 C -1.732 -3.4999 0.0 0
M  V30 33 C -3.4641 -4.4999 0.0 0
M  V30 34 C -1.732 -4.4999 0.0 0
M  V30 35 C -2.598 -4.9999 0.0 0
M  V30 END ATOM
M  V30 BEGIN BOND
M  V30 1 2 1 2
M  V30 2 1 2 3
M  V30 3 1 4 2 CFG=3
M  V30 4 1 4 5
M  V30 5 1 4 6
M  V30 6 1 5 7
M  V30 7 1 6 8
M  V30 8 2 7 9
M  V30 9 1 7 10
M  V30 10 1 9 11
M  V30 11 2 10 12
M  V30 12 2 11 13
M  V30 13 1 13 14
M  V30 14 1 14 15
M  V30 15 1 15 16
M  V30 16 1 16 17
M  V30 17 1 17 18
M  V30 18 1 18 19
M  V30 19 1 19 20
M  V30 20 2 20 21
M  V30 21 1 20 22
M  V30 22 1 21 23
M  V30 23 1 21 24
M  V30 24 2 22 25
M  V30 25 2 23 26
M  V30 26 1 24 27
M  V30 27 1 26 28
M  V30 28 1 27 29
M  V30 29 1 28 30
M  V30 30 2 30 31
M  V30 31 1 30 32
M  V30 32 1 31 33
M  V30 33 2 32 34
M  V30 34 2 33 35
M  V30 35 1 8 9
M  V30 36 1 12 13
M  V30 37 1 25 26
M  V30 38 1 34 35
M  V30 END BOND
M  V30 BEGIN COLLECTION
M  V30 MDLV30/STERAC1 ATOMS=(1 4)
M  V30 END COLLECTION
M  V30 END CTAB
M  END
>  <Molecule ChEMBL ID>
CHEMBL323008

>  <Smiles>
CCCc1cc(Oc2ccccc2)ccc1OCCCCOc1ccc2c(c1)CCC(C(=O)O)O2

>  <IC50_nM>
3000

>  <Assay Description>
In vitro binding affinity for human peroxisome proliferator activated receptor gamma using scintillation proximity assay (SPA)

$$$$
CHEMBL207442
Actelion Java MolfileCreator 2.0

  0  0  0  0  0  0              0 V3000
M  V30 BEGIN CTAB
M  V30 COUNTS 32 34 0 0 0
M  V30 BEGIN ATOM
M  V30 1 F 9.1393 -2.451 0.0 0
M  V30 2 C 8.1882 -2.76 0.0 0
M  V30 3 F 8.4972 -3.7111 0.0 0
M  V30 4 F 7.2372 -3.069 0.0 0
M  V30 5 C 7.8792 -1.809 0.0 0
M  V30 6 N 8.467 -1.0 0.0 0
M  V30 7 C 6.9282 -1.5 0.0 0
M  V30 8 O 7.8792 -0.1909 0.0 0
M  V30 9 C 6.9282 -0.5 0.0 0
M  V30 10 C 6.0621 -2.0 0.0 0
M  V30 11 C 6.0621 0.0 0.0 0
M  V30 12 C 5.1961 -1.4999 0.0 0
M  V30 13 C 5.1961 -0.5 0.0 0
M  V30 14 C 6.0621 0.9999 0.0 0
M  V30 15 O 4.3301 0.0 0.0 0
M  V30 16 C 6.9282 1.4999 0.0 0
M  V30 17 C 3.4641 -0.5 0.0 0
M  V30 18 C 6.9282 2.4999 0.0 0
M  V30 19 C 2.598 0.0 0.0 0
M  V30 20 C 1.732 -0.5 0.0 0
M  V30 21 N 0.866 0.0 0.0 0
M  V30 22 C 0.866 1.0 0.0 0
M  V30 23 C 0.0 -0.5 0.0 0
M  V30 24 C 1.732 1.5 0.0 0
M  V30 25 C 0.0 1.4999 0.0 0
M  V30 26 C 1.732 2.5 0.0 0
M  V30 27 C 0.0 2.5 0.0 0
M  V30 28 C 0.866 3.0 0.0 0
M  V30 29 C 2.598 3.0 0.0 0
M  V30 30 C 3.4641 2.5 0.0 0
M  V30 31 O 3.4641 1.5 0.0 0
M  V30 32 O 4.3301 3.0 0.0 0
M  V30 END ATOM
M  V30 BEGIN BOND
M  V30 1 1 1 2
M  V30 2 1 2 3
M  V30 3 1 2 4
M  V30 4 1 2 5
M  V30 5 2 5 6
M  V30 6 1 5 7
M  V30 7 1 6 8
M  V30 8 2 7 9
M  V30 9 1 7 10
M  V30 10 1 9 11
M  V30 11 2 10 12
M  V30 12 2 11 13
M  V30 13 1 11 14
M  V30 14 1 13 15
M  V30 15 1 14 16
M  V30 16 1 15 17
M  V30 17 1 16 18
M  V30 18 1 17 19
M  V30 19 1 19 20
M  V30 20 1 20 21
M  V30 21 1 21 22
M  V30 22 1 21 23
M  V30 23 2 22 24
M  V30 24 1 22 25
M  V30 25 1 24 26
M  V30 26 2 25 27
M  V30 27 2 26 28
M  V30 28 1 26 29
M  V30 29 1 29 30
M  V30 30 2 30 31
M  V30 31 1 30 32
M  V30 32 1 8 9
M  V30 33 1 12 13
M  V30 34 1 27 28
M  V30 END BOND
M  V30 END CTAB
M  END
>  <Molecule ChEMBL ID>
CHEMBL207442

>  <Smiles>
CCCc1c(OCCCN(C)c2cccc(CC(=O)O)c2)ccc2c(C(F)(F)F)noc12

>  <IC50_nM>
3000

>  <Assay Description>
Inhibition of PPAR gamma

$$$$
CHEMBL207442
Actelion Java MolfileCreator 2.0

  0  0  0  0  0  0              0 V3000
M  V30 BEGIN CTAB
M  V30 COUNTS 32 34 0 0 0
M  V30 BEGIN ATOM
M  V30 1 F 9.1393 -2.451 0.0 0
M  V30 2 C 8.1882 -2.76 0.0 0
M  V30 3 F 8.4972 -3.7111 0.0 0
M  V30 4 F 7.2372 -3.069 0.0 0
M  V30 5 C 7.8792 -1.809 0.0 0
M  V30 6 N 8.467 -1.0 0.0 0
M  V30 7 C 6.9282 -1.5 0.0 0
M  V30 8 O 7.8792 -0.1909 0.0 0
M  V30 9 C 6.9282 -0.5 0.0 0
M  V30 10 C 6.0621 -2.0 0.0 0
M  V30 11 C 6.0621 0.0 0.0 0
M  V30 12 C 5.1961 -1.4999 0.0 0
M  V30 13 C 5.1961 -0.5 0.0 0
M  V30 14 C 6.0621 0.9999 0.0 0
M  V30 15 O 4.3301 0.0 0.0 0
M  V30 16 C 6.9282 1.4999 0.0 0
M  V30 17 C 3.4641 -0.5 0.0 0
M  V30 18 C 6.9282 2.4999 0.0 0
M  V30 19 C 2.598 0.0 0.0 0
M  V30 20 C 1.732 -0.5 0.0 0
M  V30 21 N 0.866 0.0 0.0 0
M  V30 22 C 0.866 1.0 0.0 0
M  V30 23 C 0.0 -0.5 0.0 0
M  V30 24 C 1.732 1.5 0.0 0
M  V30 25 C 0.0 1.4999 0.0 0
M  V30 26 C 1.732 2.5 0.0 0
M  V30 27 C 0.0 2.5 0.0 0
M  V30 28 C 0.866 3.0 0.0 0
M  V30 29 C 2.598 3.0 0.0 0
M  V30 30 C 3.4641 2.5 0.0 0
M  V30 31 O 3.4641 1.5 0.0 0
M  V30 32 O 4.3301 3.0 0.0 0
M  V30 END ATOM
M  V30 BEGIN BOND
M  V30 1 1 1 2
M  V30 2 1 2 3
M  V30 3 1 2 4
M  V30 4 1 2 5
M  V30 5 2 5 6
M  V30 6 1 5 7
M  V30 7 1 6 8
M  V30 8 2 7 9
M  V30 9 1 7 10
M  V30 10 1 9 11
M  V30 11 2 10 12
M  V30 12 2 11 13
M  V30 13 1 11 14
M  V30 14 1 13 15
M  V30 15 1 14 16
M  V30 16 1 15 17
M  V30 17 1 16 18
M  V30 18 1 17 19
M  V30 19 1 19 20
M  V30 20 1 20 21
M  V30 21 1 21 22
M  V30 22 1 21 23
M  V30 23 2 22 24
M  V30 24 1 22 25
M  V30 25 1 24 26
M  V30 26 2 25 27
M  V30 27 2 26 28
M  V30 28 1 26 29
M  V30 29 1 29 30
M  V30 30 2 30 31
M  V30 31 1 30 32
M  V30 32 1 8 9
M  V30 33 1 12 13
M  V30 34 1 27 28
M  V30 END BOND
M  V30 END CTAB
M  END
>  <Molecule ChEMBL ID>
CHEMBL207442

>  <Smiles>
CCCc1c(OCCCN(C)c2cccc(CC(=O)O)c2)ccc2c(C(F)(F)F)noc12

>  <IC50_nM>
3000

>  <Assay Description>
Agonist activity at PPARgamma

$$$$
CHEMBL66206
Actelion Java MolfileCreator 2.0

  0  0  0  0  0  0              0 V3000
M  V30 BEGIN CTAB
M  V30 COUNTS 28 30 0 0 0
M  V30 BEGIN ATOM
M  V30 1 O 10.3923 -6.75 0.0 0
M  V30 2 C 10.3923 -5.25 0.0 0
M  V30 3 O 11.6913 -4.5 0.0 0
M  V30 4 C 9.0932 -4.5 0.0 0
M  V30 5 O 9.0932 -3.0 0.0 0
M  V30 6 C 7.5933 -4.4999 0.0 0
M  V30 7 C 8.3433 -5.799 0.0 0
M  V30 8 C 7.7942 -2.25 0.0 0
M  V30 9 C 7.7942 -0.75 0.0 0
M  V30 10 C 6.4952 -3.0 0.0 0
M  V30 11 C 6.4952 0.0 0.0 0
M  V30 12 C 5.1961 -2.25 0.0 0
M  V30 13 C 5.1961 -0.75 0.0 0
M  V30 14 O 3.8971 0.0 0.0 0
M  V30 15 C 2.598 -0.75 0.0 0
M  V30 16 C 1.299 0.0 0.0 0
M  V30 17 C 0.0 -0.75 0.0 0
M  V30 18 N -1.3703 -0.1398 0.0 0
M  V30 19 C -0.1567 -2.2417 0.0 0
M  V30 20 C -2.374 -1.2546 0.0 0
M  V30 21 O -1.624 -2.5536 0.0 0
M  V30 22 C 0.9579 -3.2454 0.0 0
M  V30 23 C -3.8658 -1.0978 0.0 0
M  V30 24 C -4.4759 0.2724 0.0 0
M  V30 25 C -4.7474 -2.3113 0.0 0
M  V30 26 C -5.9676 0.4292 0.0 0
M  V30 27 C -6.2392 -2.1545 0.0 0
M  V30 28 C -6.8493 -0.7842 0.0 0
M  V30 END ATOM
M  V30 BEGIN BOND
M  V30 1 2 1 2
M  V30 2 1 2 3
M  V30 3 1 2 4
M  V30 4 1 4 5
M  V30 5 1 4 6
M  V30 6 1 4 7
M  V30 7 1 5 8
M  V30 8 2 8 9
M  V30 9 1 8 10
M  V30 10 1 9 11
M  V30 11 2 10 12
M  V30 12 2 11 13
M  V30 13 1 13 14
M  V30 14 1 14 15
M  V30 15 1 15 16
M  V30 16 1 16 17
M  V30 17 1 17 18
M  V30 18 2 17 19
M  V30 19 2 18 20
M  V30 20 1 19 21
M  V30 21 1 19 22
M  V30 22 1 20 23
M  V30 23 2 23 24
M  V30 24 1 23 25
M  V30 25 1 24 26
M  V30 26 2 25 27
M  V30 27 2 26 28
M  V30 28 1 12 13
M  V30 29 1 20 21
M  V30 30 1 27 28
M  V30 END BOND
M  V30 END CTAB
M  END
>  <Molecule ChEMBL ID>
CHEMBL66206

>  <Smiles>
Cc1oc(-c2ccccc2)nc1CCOc1ccc(OC(C)(C)C(=O)O)cc1

>  <IC50_nM>
3017

>  <Assay Description>
Binding affinity at human peroxidase proliferator activated receptor gamma (hPPARgamma)

$$$$
CHEMBL478334
Actelion Java MolfileCreator 2.0

  0  0  0  0  0  0              0 V3000
M  V30 BEGIN CTAB
M  V30 COUNTS 31 34 0 0 0
M  V30 BEGIN ATOM
M  V30 1 O 6.9282 -4.5 0.0 0
M  V30 2 C 6.9282 -3.5 0.0 0
M  V30 3 O 7.7942 -3.0 0.0 0
M  V30 4 C 6.0621 -3.0 0.0 0 CFG=2
M  V30 5 N 5.1961 -3.5 0.0 0
M  V30 6 C 6.0621 -1.9999 0.0 0
M  V30 7 C 4.2826 -3.0932 0.0 0
M  V30 8 C 5.0916 -4.4945 0.0 0
M  V30 9 C 5.1961 -1.4999 0.0 0
M  V30 10 C 3.6134 -3.8364 0.0 0
M  V30 11 C 4.1134 -4.7024 0.0 0
M  V30 12 C 5.1961 -0.5 0.0 0
M  V30 13 C 4.3301 -1.9999 0.0 0
M  V30 14 C 4.3301 0.0 0.0 0
M  V30 15 C 3.4641 -1.5 0.0 0
M  V30 16 C 3.4641 -0.5 0.0 0
M  V30 17 C 2.598 0.0 0.0 0
M  V30 18 C 1.732 -0.5 0.0 0
M  V30 19 C 0.866 0.0 0.0 0
M  V30 20 C 0.0 -0.5 0.0 0
M  V30 21 N -0.9135 -0.0932 0.0 0
M  V30 22 C -0.1045 -1.4945 0.0 0
M  V30 23 C -1.5826 -0.8364 0.0 0
M  V30 24 O -1.0826 -1.7024 0.0 0
M  V30 25 C 0.6386 -2.1636 0.0 0
M  V30 26 C -2.5771 -0.7318 0.0 0
M  V30 27 C -2.9839 0.1816 0.0 0
M  V30 28 C -3.1649 -1.5408 0.0 0
M  V30 29 C -3.9784 0.2861 0.0 0
M  V30 30 C -4.1595 -1.4363 0.0 0
M  V30 31 C -4.5662 -0.5228 0.0 0
M  V30 END ATOM
M  V30 BEGIN BOND
M  V30 1 2 1 2
M  V30 2 1 2 3
M  V30 3 1 2 4
M  V30 4 1 4 5 CFG=3
M  V30 5 1 4 6
M  V30 6 1 5 7
M  V30 7 1 5 8
M  V30 8 1 6 9
M  V30 9 2 7 10
M  V30 10 2 8 11
M  V30 11 2 9 12
M  V30 12 1 9 13
M  V30 13 1 12 14
M  V30 14 2 13 15
M  V30 15 2 14 16
M  V30 16 1 16 17
M  V30 17 1 17 18
M  V30 18 1 18 19
M  V30 19 1 19 20
M  V30 20 1 20 21
M  V30 21 2 20 22
M  V30 22 2 21 23
M  V30 23 1 22 24
M  V30 24 1 22 25
M  V30 25 1 23 26
M  V30 26 2 26 27
M  V30 27 1 26 28
M  V30 28 1 27 29
M  V30 29 2 28 30
M  V30 30 2 29 31
M  V30 31 1 10 11
M  V30 32 1 15 16
M  V30 33 1 23 24
M  V30 34 1 30 31
M  V30 END BOND
M  V30 BEGIN COLLECTION
M  V30 MDLV30/STEABS ATOMS=(1 4)
M  V30 END COLLECTION
M  V30 END CTAB
M  END
>  <Molecule ChEMBL ID>
CHEMBL478334

>  <Smiles>
Cc1oc(-c2ccccc2)nc1CCCc1ccc(C[C@H](C(=O)O)n2cccc2)cc1

>  <IC50_nM>
3100

>  <Assay Description>
Displacement of [3H]darglitazone from human PPARgamma by scintillation proximity assay

$$$$
CHEMBL491500
Actelion Java MolfileCreator 2.0

  0  0  0  0  0  0              0 V3000
M  V30 BEGIN CTAB
M  V30 COUNTS 32 34 0 0 0
M  V30 BEGIN ATOM
M  V30 1 Cl 10.3923 2.25 0.0 0
M  V30 2 C 9.0932 1.5 0.0 0
M  V30 3 C 7.7942 2.25 0.0 0
M  V30 4 C 9.0932 0.0 0.0 0
M  V30 5 C 6.4952 1.5 0.0 0
M  V30 6 C 7.7942 -0.75 0.0 0
M  V30 7 C 6.4952 0.0 0.0 0
M  V30 8 S 5.1961 -0.75 0.0 0
M  V30 9 O 4.4461 -2.049 0.0 0
M  V30 10 O 5.9461 -2.049 0.0 0
M  V30 11 N 3.8971 0.0 0.0 0
M  V30 12 C 2.598 -0.75 0.0 0
M  V30 13 C 1.299 0.0 0.0 0
M  V30 14 C 0.0 -0.75 0.0 0
M  V30 15 C -1.299 0.0 0.0 0
M  V30 16 C 0.0 -2.25 0.0 0
M  V30 17 C -2.598 -0.75 0.0 0
M  V30 18 C -1.299 -3.0 0.0 0
M  V30 19 C -2.598 -2.25 0.0 0
M  V30 20 S -3.8971 -3.0 0.0 0
M  V30 21 O -4.6471 -4.299 0.0 0
M  V30 22 O -3.1471 -4.299 0.0 0
M  V30 23 N -5.1961 -2.25 0.0 0
M  V30 24 C -6.4952 -3.0 0.0 0
M  V30 25 O -6.4952 -4.5 0.0 0
M  V30 26 N -7.7942 -2.25 0.0 0
M  V30 27 C -9.0932 -3.0 0.0 0
M  V30 28 C -10.3923 -2.25 0.0 0
M  V30 29 C -9.0932 -4.5 0.0 0
M  V30 30 C -11.6913 -3.0 0.0 0
M  V30 31 C -10.3923 -5.25 0.0 0
M  V30 32 C -11.6913 -4.5 0.0 0
M  V30 END ATOM
M  V30 BEGIN BOND
M  V30 1 1 1 2
M  V30 2 2 2 3
M  V30 3 1 2 4
M  V30 4 1 3 5
M  V30 5 2 4 6
M  V30 6 2 5 7
M  V30 7 1 7 8
M  V30 8 2 8 9
M  V30 9 2 8 10
M  V30 10 1 8 11
M  V30 11 1 11 12
M  V30 12 1 12 13
M  V30 13 1 13 14
M  V30 14 2 14 15
M  V30 15 1 14 16
M  V30 16 1 15 17
M  V30 17 2 16 18
M  V30 18 2 17 19
M  V30 19 1 19 20
M  V30 20 2 20 21
M  V30 21 2 20 22
M  V30 22 1 20 23
M  V30 23 1 23 24
M  V30 24 2 24 25
M  V30 25 1 24 26
M  V30 26 1 26 27
M  V30 27 1 27 28
M  V30 28 1 27 29
M  V30 29 1 28 30
M  V30 30 1 29 31
M  V30 31 1 30 32
M  V30 32 1 6 7
M  V30 33 1 18 19
M  V30 34 1 31 32
M  V30 END BOND
M  V30 END CTAB
M  END
>  <Molecule ChEMBL ID>
CHEMBL491500

>  <Smiles>
O=C(NC1CCCCC1)NS(=O)(=O)c1ccc(CCNS(=O)(=O)c2ccc(Cl)cc2)cc1

>  <IC50_nM>
3100

>  <Assay Description>
Displacement of fluormone-PPARgamma green from GST-tagged PPARgamma-LBD (unknown origin) by fluorescence polarization assay

$$$$
CHEMBL192500
Actelion Java MolfileCreator 2.0

  0  0  0  0  0  0              0 V3000
M  V30 BEGIN CTAB
M  V30 COUNTS 33 35 0 0 0
M  V30 BEGIN ATOM
M  V30 1 S 7.7942 -2.0 0.0 0
M  V30 2 C 6.9282 -1.5 0.0 0
M  V30 3 C 8.6602 -1.5 0.0 0
M  V30 4 C 6.9282 -0.5 0.0 0
M  V30 5 C 6.0621 -2.0 0.0 0
M  V30 6 F 8.1602 -0.6339 0.0 0
M  V30 7 F 9.5262 -1.0 0.0 0
M  V30 8 F 9.1602 -2.366 0.0 0
M  V30 9 C 6.0621 0.0 0.0 0
M  V30 10 C 5.1961 -1.5 0.0 0
M  V30 11 C 5.1961 -0.5 0.0 0
M  V30 12 C 6.0621 0.9999 0.0 0
M  V30 13 O 4.3301 0.0 0.0 0
M  V30 14 C 6.9282 1.4999 0.0 0
M  V30 15 C 3.4641 -0.5 0.0 0
M  V30 16 C 6.9282 2.4999 0.0 0
M  V30 17 C 2.598 0.0 0.0 0
M  V30 18 C 1.732 -0.5 0.0 0
M  V30 19 O 0.866 0.0 0.0 0
M  V30 20 C 0.0 -0.5 0.0 0
M  V30 21 C 0.0 -1.4999 0.0 0
M  V30 22 C -0.866 0.0 0.0 0
M  V30 23 C -0.866 -1.9999 0.0 0
M  V30 24 C -1.732 -0.4999 0.0 0
M  V30 25 C -1.732 -1.4999 0.0 0
M  V30 26 C -1.0739 -2.9781 0.0 0
M  V30 27 O -2.4751 -2.1691 0.0 0
M  V30 28 C -2.0684 -3.0826 0.0 0 CFG=2
M  V30 29 C -3.067 -3.0303 0.0 0
M  V30 30 C -2.5684 -3.9487 0.0 0
M  V30 31 O -3.6117 -3.869 0.0 0
M  V30 32 O -3.521 -2.1393 0.0 0
M  V30 33 C -2.0684 -4.8147 0.0 0
M  V30 END ATOM
M  V30 BEGIN BOND
M  V30 1 1 1 2
M  V30 2 1 1 3
M  V30 3 2 2 4
M  V30 4 1 2 5
M  V30 5 1 3 6
M  V30 6 1 3 7
M  V30 7 1 3 8
M  V30 8 1 4 9
M  V30 9 2 5 10
M  V30 10 2 9 11
M  V30 11 1 9 12
M  V30 12 1 11 13
M  V30 13 1 12 14
M  V30 14 1 13 15
M  V30 15 1 14 16
M  V30 16 1 15 17
M  V30 17 1 17 18
M  V30 18 1 18 19
M  V30 19 1 19 20
M  V30 20 2 20 21
M  V30 21 1 20 22
M  V30 22 1 21 23
M  V30 23 2 22 24
M  V30 24 2 23 25
M  V30 25 1 23 26
M  V30 26 1 25 27
M  V30 27 1 26 28
M  V30 28 1 28 29
M  V30 29 1 28 30 CFG=3
M  V30 30 2 29 31
M  V30 31 1 29 32
M  V30 32 1 30 33
M  V30 33 1 10 11
M  V30 34 1 24 25
M  V30 35 1 27 28
M  V30 END BOND
M  V30 BEGIN COLLECTION
M  V30 MDLV30/STERAC1 ATOMS=(1 28)
M  V30 END COLLECTION
M  V30 END CTAB
M  END
>  <Molecule ChEMBL ID>
CHEMBL192500

>  <Smiles>
CCCc1cc(SC(F)(F)F)ccc1OCCCOc1ccc2c(c1)CC(CC)(C(=O)O)O2

>  <IC50_nM>
3110

>  <Assay Description>
In vitro binding affinity for PPAR-gamma

$$$$
CHEMBL64972
Actelion Java MolfileCreator 2.0

  0  0  0  0  0  0              0 V3000
M  V30 BEGIN CTAB
M  V30 COUNTS 27 29 0 0 0
M  V30 BEGIN ATOM
M  V30 1 O 6.9282 -4.5 0.0 0
M  V30 2 C 6.9282 -3.5 0.0 0
M  V30 3 O 7.7942 -3.0 0.0 0
M  V30 4 C 6.0621 -3.0 0.0 0 CFG=1
M  V30 5 O 6.0621 -1.9999 0.0 0
M  V30 6 C 5.1961 -3.5 0.0 0
M  V30 7 C 5.1961 -1.4999 0.0 0
M  V30 8 C 5.1961 -0.5 0.0 0
M  V30 9 C 4.3301 -1.9999 0.0 0
M  V30 10 C 4.3301 0.0 0.0 0
M  V30 11 C 3.4641 -1.5 0.0 0
M  V30 12 C 3.4641 -0.5 0.0 0
M  V30 13 O 2.598 0.0 0.0 0
M  V30 14 C 1.732 -0.5 0.0 0
M  V30 15 C 0.866 0.0 0.0 0
M  V30 16 C 0.0 -0.5 0.0 0
M  V30 17 N -0.9135 -0.0932 0.0 0
M  V30 18 C -0.1045 -1.4945 0.0 0
M  V30 19 C -1.5826 -0.8364 0.0 0
M  V30 20 O -1.0826 -1.7024 0.0 0
M  V30 21 C 0.6386 -2.1636 0.0 0
M  V30 22 C -2.5771 -0.7318 0.0 0
M  V30 23 C -2.9839 0.1816 0.0 0
M  V30 24 C -3.1649 -1.5408 0.0 0
M  V30 25 C -3.9784 0.2861 0.0 0
M  V30 26 C -4.1595 -1.4363 0.0 0
M  V30 27 C -4.5662 -0.5228 0.0 0
M  V30 END ATOM
M  V30 BEGIN BOND
M  V30 1 2 1 2
M  V30 2 1 2 3
M  V30 3 1 2 4
M  V30 4 1 4 5
M  V30 5 1 4 6 CFG=3
M  V30 6 1 5 7
M  V30 7 2 7 8
M  V30 8 1 7 9
M  V30 9 1 8 10
M  V30 10 2 9 11
M  V30 11 2 10 12
M  V30 12 1 12 13
M  V30 13 1 13 14
M  V30 14 1 14 15
M  V30 15 1 15 16
M  V30 16 1 16 17
M  V30 17 2 16 18
M  V30 18 2 17 19
M  V30 19 1 18 20
M  V30 20 1 18 21
M  V30 21 1 19 22
M  V30 22 2 22 23
M  V30 23 1 22 24
M  V30 24 1 23 25
M  V30 25 2 24 26
M  V30 26 2 25 27
M  V30 27 1 11 12
M  V30 28 1 19 20
M  V30 29 1 26 27
M  V30 END BOND
M  V30 BEGIN COLLECTION
M  V30 MDLV30/STERAC1 ATOMS=(1 4)
M  V30 END COLLECTION
M  V30 END CTAB
M  END
>  <Molecule ChEMBL ID>
CHEMBL64972

>  <Smiles>
Cc1oc(-c2ccccc2)nc1CCOc1ccc(OC(C)C(=O)O)cc1

>  <IC50_nM>
3120

>  <Assay Description>
Binding affinity at human peroxidase proliferator activated receptor gamma (hPPARgamma)

$$$$
CHEMBL4293295
Actelion Java MolfileCreator 2.0

  0  0  0  0  0  0              0 V3000
M  V30 BEGIN CTAB
M  V30 COUNTS 26 28 0 0 0
M  V30 BEGIN ATOM
M  V30 1 S 5.2531 -3.5877 0.0 0
M  V30 2 C 5.5621 -4.5388 0.0 0
M  V30 3 C 6.0621 -3.0 0.0 0
M  V30 4 O 4.9743 -5.3478 0.0 0
M  V30 5 N 6.5621 -4.5388 0.0 0
M  V30 6 C 6.8711 -3.5877 0.0 0
M  V30 7 C 6.0621 -1.9999 0.0 0
M  V30 8 O 7.8222 -3.2787 0.0 0
M  V30 9 C 5.1961 -1.4999 0.0 0
M  V30 10 C 5.1961 -0.5 0.0 0
M  V30 11 C 4.3301 -1.9999 0.0 0
M  V30 12 C 4.3301 0.0 0.0 0
M  V30 13 C 3.4641 -1.5 0.0 0
M  V30 14 C 3.4641 -0.5 0.0 0
M  V30 15 O 2.598 0.0 0.0 0
M  V30 16 C 1.732 -0.5 0.0 0
M  V30 17 C 0.866 0.0 0.0 0 CFG=1
M  V30 18 O 0.866 1.0 0.0 0
M  V30 19 C 0.0 -0.5 0.0 0
M  V30 20 N -0.866 0.0 0.0 0
M  V30 21 C 0.0 -1.4999 0.0 0
M  V30 22 C -1.732 -0.4999 0.0 0
M  V30 23 C -0.866 -1.9999 0.0 0
M  V30 24 C -1.732 -1.4999 0.0 0
M  V30 25 C -2.598 -1.9999 0.0 0
M  V30 26 C -2.598 -2.9999 0.0 0
M  V30 END ATOM
M  V30 BEGIN BOND
M  V30 1 1 1 2
M  V30 2 1 1 3
M  V30 3 2 2 4
M  V30 4 1 2 5
M  V30 5 1 3 6
M  V30 6 1 3 7
M  V30 7 2 6 8
M  V30 8 1 7 9
M  V30 9 2 9 10
M  V30 10 1 9 11
M  V30 11 1 10 12
M  V30 12 2 11 13
M  V30 13 2 12 14
M  V30 14 1 14 15
M  V30 15 1 15 16
M  V30 16 1 16 17
M  V30 17 1 17 18 CFG=3
M  V30 18 1 17 19
M  V30 19 2 19 20
M  V30 20 1 19 21
M  V30 21 1 20 22
M  V30 22 2 21 23
M  V30 23 2 22 24
M  V30 24 1 24 25
M  V30 25 1 25 26
M  V30 26 1 5 6
M  V30 27 1 13 14
M  V30 28 1 23 24
M  V30 END BOND
M  V30 BEGIN COLLECTION
M  V30 MDLV30/STEABS ATOMS=(1 17)
M  V30 END COLLECTION
M  V30 END CTAB
M  END
>  <Molecule ChEMBL ID>
CHEMBL4293295

>  <Smiles>
CCc1ccc([C@H](O)COc2ccc(CC3SC(=O)NC3=O)cc2)nc1

>  <IC50_nM>
3120

>  <Assay Description>
Competitive displacement of fluorescently labelled PPAR tracer ligand from GST-tagged human PPARgamma ligand binding domain after 1 hr in dark by TR-FRET competitive binding assay

$$$$
CHEMBL371195
Actelion Java MolfileCreator 2.0

  0  0  0  0  0  0              0 V3000
M  V30 BEGIN CTAB
M  V30 COUNTS 28 29 0 0 0
M  V30 BEGIN ATOM
M  V30 1 O 3.9457 -3.0374 0.0 0
M  V30 2 C 2.6305 -2.278 0.0 0
M  V30 3 O 1.6117 -2.8002 0.0 0
M  V30 4 C 2.6305 -0.7593 0.0 0 CFG=2
M  V30 5 O 1.3152 0.0 0.0 0
M  V30 6 C 3.9457 0.0 0.0 0
M  V30 7 C 0.0 -0.7593 0.0 0
M  V30 8 C 3.9457 1.5187 0.0 0
M  V30 9 C 5.261 -0.7593 0.0 0
M  V30 10 C -1.3152 0.0 0.0 0
M  V30 11 C 0.0 -2.278 0.0 0
M  V30 12 C 5.261 2.278 0.0 0
M  V30 13 C 6.5762 0.0 0.0 0
M  V30 14 C -2.6305 -0.7593 0.0 0
M  V30 15 C -1.3152 1.5187 0.0 0
M  V30 16 C -1.3152 -3.0374 0.0 0
M  V30 17 C 1.167 -3.156 0.0 0
M  V30 18 C 6.5762 1.5187 0.0 0
M  V30 19 C -2.6305 -2.278 0.0 0
M  V30 20 C 0.0 2.278 0.0 0
M  V30 21 C 1.3152 -4.5561 0.0 0
M  V30 22 C -3.9457 -3.0374 0.0 0
M  V30 23 C 0.0 3.7968 0.0 0
M  V30 24 C 0.0 -5.3155 0.0 0
M  V30 25 O -3.9457 -4.5561 0.0 0
M  V30 26 C -5.261 -2.278 0.0 0
M  V30 27 C -5.261 -0.7593 0.0 0
M  V30 28 C -6.5762 -3.0374 0.0 0
M  V30 END ATOM
M  V30 BEGIN BOND
M  V30 1 2 1 2
M  V30 2 1 2 3
M  V30 3 1 2 4
M  V30 4 1 4 5 CFG=3
M  V30 5 1 4 6
M  V30 6 1 5 7
M  V30 7 2 6 8
M  V30 8 1 6 9
M  V30 9 2 7 10
M  V30 10 1 7 11
M  V30 11 1 8 12
M  V30 12 2 9 13
M  V30 13 1 10 14
M  V30 14 1 10 15
M  V30 15 2 11 16
M  V30 16 1 11 17
M  V30 17 2 12 18
M  V30 18 2 14 19
M  V30 19 1 15 20
M  V30 20 1 17 21
M  V30 21 1 19 22
M  V30 22 1 20 23
M  V30 23 1 21 24
M  V30 24 2 22 25
M  V30 25 1 22 26
M  V30 26 1 26 27
M  V30 27 1 26 28
M  V30 28 1 13 18
M  V30 29 1 16 19
M  V30 END BOND
M  V30 BEGIN COLLECTION
M  V30 MDLV30/STERAC1 ATOMS=(1 4)
M  V30 END COLLECTION
M  V30 END CTAB
M  END
>  <Molecule ChEMBL ID>
CHEMBL371195

>  <Smiles>
CCCc1cc(C(=O)C(C)C)cc(CCC)c1OC(C(=O)O)c1ccccc1

>  <IC50_nM>
3160

>  <Assay Description>
In vitro binding affinity for human PPAR gamma

$$$$
CHEMBL496743
Actelion Java MolfileCreator 2.0

  0  0  0  0  0  0              0 V3000
M  V30 BEGIN CTAB
M  V30 COUNTS 34 37 0 0 0
M  V30 BEGIN ATOM
M  V30 1 S 5.1961 3.75 0.0 0
M  V30 2 O 4.4461 5.049 0.0 0
M  V30 3 O 3.6961 3.7499 0.0 0
M  V30 4 N 6.4951 4.5 0.0 0
M  V30 5 C 5.1961 2.25 0.0 0
M  V30 6 C 7.8655 3.8898 0.0 0
M  V30 7 C 6.6519 5.9917 0.0 0
M  V30 8 C 3.8971 1.5 0.0 0
M  V30 9 C 6.4951 1.5 0.0 0
M  V30 10 C 8.8692 5.0046 0.0 0
M  V30 11 C 8.329 2.4633 0.0 0
M  V30 12 C 8.1192 6.3036 0.0 0
M  V30 13 C 3.8971 0.0 0.0 0
M  V30 14 C 6.4951 0.0 0.0 0
M  V30 15 C 10.3364 4.6927 0.0 0
M  V30 16 C 9.7962 2.1514 0.0 0
M  V30 17 C 2.598 -0.75 0.0 0
M  V30 18 C 5.1961 -0.75 0.0 0
M  V30 19 C 10.7999 3.2661 0.0 0
M  V30 20 C 11.3401 5.8074 0.0 0
M  V30 21 O 2.598 -2.25 0.0 0
M  V30 22 N 1.299 0.0 0.0 0
M  V30 23 O 12.2671 2.9542 0.0 0
M  V30 24 C 0.0 -0.75 0.0 0
M  V30 25 C 13.2708 4.069 0.0 0
M  V30 26 C -1.299 0.0 0.0 0
M  V30 27 C 0.0 -2.25 0.0 0
M  V30 28 C -1.299 1.5 0.0 0
M  V30 29 C -2.598 -0.75 0.0 0
M  V30 30 C -1.299 -3.0 0.0 0
M  V30 31 O 0.0 2.25 0.0 0
M  V30 32 O -2.598 2.25 0.0 0
M  V30 33 C -2.598 -2.25 0.0 0
M  V30 34 C -3.8971 -3.0 0.0 0
M  V30 END ATOM
M  V30 BEGIN BOND
M  V30 1 2 1 2
M  V30 2 2 1 3
M  V30 3 1 1 4
M  V30 4 1 1 5
M  V30 5 1 4 6
M  V30 6 1 4 7
M  V30 7 2 5 8
M  V30 8 1 5 9
M  V30 9 2 6 10
M  V30 10 1 6 11
M  V30 11 2 7 12
M  V30 12 1 8 13
M  V30 13 2 9 14
M  V30 14 1 10 15
M  V30 15 2 11 16
M  V30 16 1 13 17
M  V30 17 2 13 18
M  V30 18 2 15 19
M  V30 19 1 15 20
M  V30 20 2 17 21
M  V30 21 1 17 22
M  V30 22 1 19 23
M  V30 23 1 22 24
M  V30 24 1 23 25
M  V30 25 2 24 26
M  V30 26 1 24 27
M  V30 27 1 26 28
M  V30 28 1 26 29
M  V30 29 2 27 30
M  V30 30 2 28 31
M  V30 31 1 28 32
M  V30 32 2 29 33
M  V30 33 1 33 34
M  V30 34 1 10 12
M  V30 35 1 14 18
M  V30 36 1 16 19
M  V30 37 1 30 33
M  V30 END BOND
M  V30 END CTAB
M  END
>  <Molecule ChEMBL ID>
CHEMBL496743

>  <Smiles>
COc1ccc2c(ccn2S(=O)(=O)c2cccc(C(=O)Nc3ccc(C)cc3C(=O)O)c2)c1C

>  <IC50_nM>
3162.28

>  <Assay Description>
Agonist activity at PPARgamma

$$$$
CHEMBL1760270
Actelion Java MolfileCreator 2.0

  0  0  0  0  0  0              0 V3000
M  V30 BEGIN CTAB
M  V30 COUNTS 38 40 0 0 0
M  V30 BEGIN ATOM
M  V30 1 Cl -1.299 -7.5 0.0 0
M  V30 2 C 0.0 -6.75 0.0 0
M  V30 3 C 0.0 -5.25 0.0 0
M  V30 4 C 1.299 -7.5 0.0 0
M  V30 5 C 1.299 -4.5 0.0 0
M  V30 6 C 2.598 -6.75 0.0 0
M  V30 7 C 2.598 -5.25 0.0 0
M  V30 8 C 3.8971 -4.5 0.0 0
M  V30 9 C 3.8971 -3.0 0.0 0
M  V30 10 C 5.1961 -5.25 0.0 0
M  V30 11 C 5.1961 -2.25 0.0 0
M  V30 12 C 2.598 -2.25 0.0 0
M  V30 13 C 6.4951 -4.5 0.0 0
M  V30 14 N 5.1961 -0.75 0.0 0
M  V30 15 C 6.4951 -3.0 0.0 0
M  V30 16 S 6.4951 0.0 0.0 0
M  V30 17 C 3.8971 0.0 0.0 0
M  V30 18 O 7.2451 1.299 0.0 0
M  V30 19 O 5.7451 1.299 0.0 0
M  V30 20 C 7.7942 -0.75 0.0 0
M  V30 21 C 2.598 -0.75 0.0 0
M  V30 22 C 9.0932 0.0 0.0 0
M  V30 23 C 7.7942 -2.25 0.0 0
M  V30 24 C 1.299 0.0 0.0 0
M  V30 25 C 10.3923 -0.75 0.0 0
M  V30 26 C 9.0932 1.5 0.0 0
M  V30 27 C 9.0932 -3.0 0.0 0
M  V30 28 C 0.0 -0.75 0.0 0
M  V30 29 C 10.3923 -2.25 0.0 0
M  V30 30 C 11.6913 0.0 0.0 0
M  V30 31 O 11.6913 -3.0 0.0 0
M  V30 32 C 11.6913 -4.5 0.0 0 CFG=2
M  V30 33 C 10.3923 -5.25 0.0 0
M  V30 34 C 12.9903 -5.25 0.0 0
M  V30 35 O 9.0932 -4.5 0.0 0
M  V30 36 O 10.3923 -6.75 0.0 0
M  V30 37 C 12.9903 -6.75 0.0 0
M  V30 38 C 14.2894 -7.5 0.0 0
M  V30 END ATOM
M  V30 BEGIN BOND
M  V30 1 1 1 2
M  V30 2 2 2 3
M  V30 3 1 2 4
M  V30 4 1 3 5
M  V30 5 2 4 6
M  V30 6 2 5 7
M  V30 7 1 7 8
M  V30 8 2 8 9
M  V30 9 1 8 10
M  V30 10 1 9 11
M  V30 11 1 9 12
M  V30 12 2 10 13
M  V30 13 1 11 14
M  V30 14 2 11 15
M  V30 15 1 14 16
M  V30 16 1 14 17
M  V30 17 2 16 18
M  V30 18 2 16 19
M  V30 19 1 16 20
M  V30 20 1 17 21
M  V30 21 2 20 22
M  V30 22 1 20 23
M  V30 23 1 21 24
M  V30 24 1 22 25
M  V30 25 1 22 26
M  V30 26 2 23 27
M  V30 27 1 24 28
M  V30 28 2 25 29
M  V30 29 1 25 30
M  V30 30 1 29 31
M  V30 31 1 32 31 CFG=1
M  V30 32 1 32 33
M  V30 33 1 32 34
M  V30 34 2 33 35
M  V30 35 1 33 36
M  V30 36 1 34 37
M  V30 37 1 37 38
M  V30 38 1 6 7
M  V30 39 1 13 15
M  V30 40 1 27 29
M  V30 END BOND
M  V30 BEGIN COLLECTION
M  V30 MDLV30/STERAC1 ATOMS=(1 32)
M  V30 END COLLECTION
M  V30 END CTAB
M  END
>  <Molecule ChEMBL ID>
CHEMBL1760270

>  <Smiles>
CCCCN(c1cccc(-c2ccc(Cl)cc2)c1C)S(=O)(=O)c1ccc(OC(CCC)C(=O)O)c(C)c1C

>  <IC50_nM>
3162.28

>  <Assay Description>
Displacement of [3H]GW 2433 from human PPARgamma by scintillation proximity assay

$$$$
CHEMBL522577
Actelion Java MolfileCreator 2.0

  0  0  0  0  0  0              0 V3000
M  V30 BEGIN CTAB
M  V30 COUNTS 34 37 0 0 0
M  V30 BEGIN ATOM
M  V30 1 Cl 7.7942 2.25 0.0 0
M  V30 2 C 6.4951 1.5 0.0 0
M  V30 3 C 6.4951 0.0 0.0 0
M  V30 4 C 5.1961 2.25 0.0 0
M  V30 5 C 5.1961 -0.75 0.0 0
M  V30 6 C 3.8971 1.5 0.0 0
M  V30 7 C 3.8971 0.0 0.0 0
M  V30 8 C 5.1961 -2.25 0.0 0
M  V30 9 N 2.598 -0.75 0.0 0
M  V30 10 O 6.4951 -3.0 0.0 0
M  V30 11 O 3.8971 -3.0 0.0 0
M  V30 12 C 1.299 0.0 0.0 0
M  V30 13 O 1.299 1.5 0.0 0
M  V30 14 C 0.0 -0.75 0.0 0
M  V30 15 C -1.299 0.0 0.0 0
M  V30 16 C 0.0 -2.25 0.0 0
M  V30 17 C -2.598 -0.75 0.0 0
M  V30 18 C -1.299 -3.0 0.0 0
M  V30 19 S -3.8971 0.0 0.0 0
M  V30 20 C -2.598 -2.25 0.0 0
M  V30 21 O -3.1471 1.299 0.0 0
M  V30 22 O -4.6471 1.299 0.0 0
M  V30 23 N -5.1961 -0.75 0.0 0
M  V30 24 C -6.5664 -0.1398 0.0 0
M  V30 25 C -5.3529 -2.2417 0.0 0
M  V30 26 C -7.5701 -1.2546 0.0 0
M  V30 27 C -7.03 1.2866 0.0 0
M  V30 28 C -6.8201 -2.5536 0.0 0
M  V30 29 C -9.0373 -0.9427 0.0 0
M  V30 30 C -8.4972 1.5985 0.0 0
M  V30 31 C -9.5009 0.4838 0.0 0
M  V30 32 C -10.041 -2.0574 0.0 0
M  V30 33 O -10.9681 0.7957 0.0 0
M  V30 34 C -11.9718 -0.319 0.0 0
M  V30 END ATOM
M  V30 BEGIN BOND
M  V30 1 1 1 2
M  V30 2 2 2 3
M  V30 3 1 2 4
M  V30 4 1 3 5
M  V30 5 2 4 6
M  V30 6 2 5 7
M  V30 7 1 5 8
M  V30 8 1 7 9
M  V30 9 2 8 10
M  V30 10 1 8 11
M  V30 11 1 9 12
M  V30 12 2 12 13
M  V30 13 1 12 14
M  V30 14 2 14 15
M  V30 15 1 14 16
M  V30 16 1 15 17
M  V30 17 2 16 18
M  V30 18 1 17 19
M  V30 19 2 17 20
M  V30 20 2 19 21
M  V30 21 2 19 22
M  V30 22 1 19 23
M  V30 23 1 23 24
M  V30 24 1 23 25
M  V30 25 2 24 26
M  V30 26 1 24 27
M  V30 27 2 25 28
M  V30 28 1 26 29
M  V30 29 2 27 30
M  V30 30 2 29 31
M  V30 31 1 29 32
M  V30 32 1 31 33
M  V30 33 1 33 34
M  V30 34 1 6 7
M  V30 35 1 18 20
M  V30 36 1 26 28
M  V30 37 1 30 31
M  V30 END BOND
M  V30 END CTAB
M  END
>  <Molecule ChEMBL ID>
CHEMBL522577

>  <Smiles>
COc1ccc2c(ccn2S(=O)(=O)c2cccc(C(=O)Nc3ccc(Cl)cc3C(=O)O)c2)c1C

>  <IC50_nM>
3162.28

>  <Assay Description>
Displacement of radiolabeled ligand from human PPARgamma by competition-binding assay

$$$$
CHEMBL496743
Actelion Java MolfileCreator 2.0

  0  0  0  0  0  0              0 V3000
M  V30 BEGIN CTAB
M  V30 COUNTS 34 37 0 0 0
M  V30 BEGIN ATOM
M  V30 1 S 5.1961 3.75 0.0 0
M  V30 2 O 4.4461 5.049 0.0 0
M  V30 3 O 3.6961 3.7499 0.0 0
M  V30 4 N 6.4951 4.5 0.0 0
M  V30 5 C 5.1961 2.25 0.0 0
M  V30 6 C 7.8655 3.8898 0.0 0
M  V30 7 C 6.6519 5.9917 0.0 0
M  V30 8 C 3.8971 1.5 0.0 0
M  V30 9 C 6.4951 1.5 0.0 0
M  V30 10 C 8.8692 5.0046 0.0 0
M  V30 11 C 8.329 2.4633 0.0 0
M  V30 12 C 8.1192 6.3036 0.0 0
M  V30 13 C 3.8971 0.0 0.0 0
M  V30 14 C 6.4951 0.0 0.0 0
M  V30 15 C 10.3364 4.6927 0.0 0
M  V30 16 C 9.7962 2.1514 0.0 0
M  V30 17 C 2.598 -0.75 0.0 0
M  V30 18 C 5.1961 -0.75 0.0 0
M  V30 19 C 10.7999 3.2661 0.0 0
M  V30 20 C 11.3401 5.8074 0.0 0
M  V30 21 O 2.598 -2.25 0.0 0
M  V30 22 N 1.299 0.0 0.0 0
M  V30 23 O 12.2671 2.9542 0.0 0
M  V30 24 C 0.0 -0.75 0.0 0
M  V30 25 C 13.2708 4.069 0.0 0
M  V30 26 C -1.299 0.0 0.0 0
M  V30 27 C 0.0 -2.25 0.0 0
M  V30 28 C -1.299 1.5 0.0 0
M  V30 29 C -2.598 -0.75 0.0 0
M  V30 30 C -1.299 -3.0 0.0 0
M  V30 31 O 0.0 2.25 0.0 0
M  V30 32 O -2.598 2.25 0.0 0
M  V30 33 C -2.598 -2.25 0.0 0
M  V30 34 C -3.8971 -3.0 0.0 0
M  V30 END ATOM
M  V30 BEGIN BOND
M  V30 1 2 1 2
M  V30 2 2 1 3
M  V30 3 1 1 4
M  V30 4 1 1 5
M  V30 5 1 4 6
M  V30 6 1 4 7
M  V30 7 2 5 8
M  V30 8 1 5 9
M  V30 9 2 6 10
M  V30 10 1 6 11
M  V30 11 2 7 12
M  V30 12 1 8 13
M  V30 13 2 9 14
M  V30 14 1 10 15
M  V30 15 2 11 16
M  V30 16 1 13 17
M  V30 17 2 13 18
M  V30 18 2 15 19
M  V30 19 1 15 20
M  V30 20 2 17 21
M  V30 21 1 17 22
M  V30 22 1 19 23
M  V30 23 1 22 24
M  V30 24 1 23 25
M  V30 25 2 24 26
M  V30 26 1 24 27
M  V30 27 1 26 28
M  V30 28 1 26 29
M  V30 29 2 27 30
M  V30 30 2 28 31
M  V30 31 1 28 32
M  V30 32 2 29 33
M  V30 33 1 33 34
M  V30 34 1 10 12
M  V30 35 1 14 18
M  V30 36 1 16 19
M  V30 37 1 30 33
M  V30 END BOND
M  V30 END CTAB
M  END
>  <Molecule ChEMBL ID>
CHEMBL496743

>  <Smiles>
COc1ccc2c(ccn2S(=O)(=O)c2cccc(C(=O)Nc3ccc(C)cc3C(=O)O)c2)c1C

>  <IC50_nM>
3162.28

>  <Assay Description>
Displacement of radiolabeled ligand from human PPARgamma by competition-binding assay

$$$$
CHEMBL1760415
Actelion Java MolfileCreator 2.0

  0  0  0  0  0  0              0 V3000
M  V30 BEGIN CTAB
M  V30 COUNTS 36 38 0 0 0
M  V30 BEGIN ATOM
M  V30 1 Cl -1.299 -7.5 0.0 0
M  V30 2 C 0.0 -6.75 0.0 0
M  V30 3 C 1.299 -7.5 0.0 0
M  V30 4 C 0.0 -5.25 0.0 0
M  V30 5 C 2.598 -6.75 0.0 0
M  V30 6 C 1.299 -4.5 0.0 0
M  V30 7 C 2.598 -5.25 0.0 0
M  V30 8 C 3.8971 -4.5 0.0 0
M  V30 9 C 5.1961 -5.25 0.0 0
M  V30 10 C 3.8971 -3.0 0.0 0
M  V30 11 C 6.4951 -4.5 0.0 0
M  V30 12 C 5.1961 -6.75 0.0 0
M  V30 13 C 5.1961 -2.25 0.0 0
M  V30 14 C 6.4951 -3.0 0.0 0
M  V30 15 N 5.1961 -0.75 0.0 0
M  V30 16 S 6.4951 0.0 0.0 0
M  V30 17 C 3.8971 0.0 0.0 0
M  V30 18 O 7.2451 1.299 0.0 0
M  V30 19 O 5.7451 1.299 0.0 0
M  V30 20 C 7.7942 -0.75 0.0 0
M  V30 21 C 2.598 -0.75 0.0 0
M  V30 22 C 9.0932 0.0 0.0 0
M  V30 23 C 7.7942 -2.25 0.0 0
M  V30 24 C 1.299 0.0 0.0 0
M  V30 25 C 10.3923 -0.75 0.0 0
M  V30 26 C 9.0932 1.5 0.0 0
M  V30 27 C 9.0932 -3.0 0.0 0
M  V30 28 C 0.0 -0.75 0.0 0
M  V30 29 C 10.3923 -2.25 0.0 0
M  V30 30 C 11.6913 0.0 0.0 0
M  V30 31 O 11.6913 -3.0 0.0 0
M  V30 32 C 11.6913 -4.5 0.0 0 CFG=2
M  V30 33 C 12.9903 -5.25 0.0 0
M  V30 34 C 10.3923 -5.25 0.0 0
M  V30 35 O 14.2894 -4.5 0.0 0
M  V30 36 O 12.9903 -6.75 0.0 0
M  V30 END ATOM
M  V30 BEGIN BOND
M  V30 1 1 1 2
M  V30 2 2 2 3
M  V30 3 1 2 4
M  V30 4 1 3 5
M  V30 5 2 4 6
M  V30 6 2 5 7
M  V30 7 1 7 8
M  V30 8 2 8 9
M  V30 9 1 8 10
M  V30 10 1 9 11
M  V30 11 1 9 12
M  V30 12 2 10 13
M  V30 13 2 11 14
M  V30 14 1 13 15
M  V30 15 1 15 16
M  V30 16 1 15 17
M  V30 17 2 16 18
M  V30 18 2 16 19
M  V30 19 1 16 20
M  V30 20 1 17 21
M  V30 21 2 20 22
M  V30 22 1 20 23
M  V30 23 1 21 24
M  V30 24 1 22 25
M  V30 25 1 22 26
M  V30 26 2 23 27
M  V30 27 1 24 28
M  V30 28 2 25 29
M  V30 29 1 25 30
M  V30 30 1 29 31
M  V30 31 1 31 32
M  V30 32 1 32 33
M  V30 33 1 32 34 CFG=3
M  V30 34 2 33 35
M  V30 35 1 33 36
M  V30 36 1 6 7
M  V30 37 1 13 14
M  V30 38 1 27 29
M  V30 END BOND
M  V30 BEGIN COLLECTION
M  V30 MDLV30/STERAC1 ATOMS=(1 32)
M  V30 END COLLECTION
M  V30 END CTAB
M  END
>  <Molecule ChEMBL ID>
CHEMBL1760415

>  <Smiles>
CCCCN(c1ccc(C)c(-c2ccc(Cl)cc2)c1)S(=O)(=O)c1ccc(OC(C)C(=O)O)c(C)c1C

>  <IC50_nM>
3162.28

>  <Assay Description>
Displacement of [3H]GW 2433 from human PPARgamma by scintillation proximity assay

$$$$
CHEMBL522619
Actelion Java MolfileCreator 2.0

  0  0  0  0  0  0              0 V3000
M  V30 BEGIN CTAB
M  V30 COUNTS 35 38 0 0 0
M  V30 BEGIN ATOM
M  V30 1 S 5.1961 3.75 0.0 0
M  V30 2 O 4.4461 5.049 0.0 0
M  V30 3 O 3.6961 3.7499 0.0 0
M  V30 4 N 6.4951 4.5 0.0 0
M  V30 5 C 5.1961 2.25 0.0 0
M  V30 6 C 7.7942 3.75 0.0 0
M  V30 7 C 6.4951 6.0 0.0 0
M  V30 8 C 3.8971 1.5 0.0 0
M  V30 9 C 6.4951 1.5 0.0 0
M  V30 10 C 9.0932 4.5 0.0 0
M  V30 11 C 7.7942 6.75 0.0 0
M  V30 12 C 3.8971 0.0 0.0 0
M  V30 13 C 6.4951 0.0 0.0 0
M  V30 14 C 9.0932 6.0 0.0 0
M  V30 15 C 10.3923 3.75 0.0 0
M  V30 16 C 2.598 -0.75 0.0 0
M  V30 17 C 5.1961 -0.75 0.0 0
M  V30 18 C 10.3923 6.75 0.0 0
M  V30 19 C 11.6913 4.5 0.0 0
M  V30 20 O 2.598 -2.25 0.0 0
M  V30 21 N 1.299 0.0 0.0 0
M  V30 22 C 11.6913 6.0 0.0 0
M  V30 23 C 0.0 -0.75 0.0 0
M  V30 24 C -1.299 0.0 0.0 0
M  V30 25 C 0.0 -2.25 0.0 0
M  V30 26 C -1.299 1.5 0.0 0
M  V30 27 C -2.598 -0.75 0.0 0
M  V30 28 C -1.299 -3.0 0.0 0
M  V30 29 O 0.0 2.25 0.0 0
M  V30 30 O -2.598 2.25 0.0 0
M  V30 31 C -2.598 -2.25 0.0 0
M  V30 32 C -3.8971 -3.0 0.0 0
M  V30 33 F -3.1471 -4.299 0.0 0
M  V30 34 F -5.1961 -3.75 0.0 0
M  V30 35 F -4.6471 -1.7009 0.0 0
M  V30 END ATOM
M  V30 BEGIN BOND
M  V30 1 2 1 2
M  V30 2 2 1 3
M  V30 3 1 1 4
M  V30 4 1 1 5
M  V30 5 1 4 6
M  V30 6 1 4 7
M  V30 7 2 5 8
M  V30 8 1 5 9
M  V30 9 1 6 10
M  V30 10 1 7 11
M  V30 11 1 8 12
M  V30 12 2 9 13
M  V30 13 2 10 14
M  V30 14 1 10 15
M  V30 15 1 12 16
M  V30 16 2 12 17
M  V30 17 1 14 18
M  V30 18 2 15 19
M  V30 19 2 16 20
M  V30 20 1 16 21
M  V30 21 2 18 22
M  V30 22 1 21 23
M  V30 23 2 23 24
M  V30 24 1 23 25
M  V30 25 1 24 26
M  V30 26 1 24 27
M  V30 27 2 25 28
M  V30 28 2 26 29
M  V30 29 1 26 30
M  V30 30 2 27 31
M  V30 31 1 31 32
M  V30 32 1 32 33
M  V30 33 1 32 34
M  V30 34 1 32 35
M  V30 35 1 11 14
M  V30 36 1 13 17
M  V30 37 1 19 22
M  V30 38 1 28 31
M  V30 END BOND
M  V30 END CTAB
M  END
>  <Molecule ChEMBL ID>
CHEMBL522619

>  <Smiles>
O=C(Nc1ccc(C(F)(F)F)cc1C(=O)O)c1cccc(S(=O)(=O)N2CCc3ccccc3C2)c1

>  <IC50_nM>
3162.28

>  <Assay Description>
Displacement of radiolabeled ligand from human PPARgamma by competition-binding assay

$$$$
CHEMBL522619
Actelion Java MolfileCreator 2.0

  0  0  0  0  0  0              0 V3000
M  V30 BEGIN CTAB
M  V30 COUNTS 35 38 0 0 0
M  V30 BEGIN ATOM
M  V30 1 S 5.1961 3.75 0.0 0
M  V30 2 O 4.4461 5.049 0.0 0
M  V30 3 O 3.6961 3.7499 0.0 0
M  V30 4 N 6.4951 4.5 0.0 0
M  V30 5 C 5.1961 2.25 0.0 0
M  V30 6 C 7.7942 3.75 0.0 0
M  V30 7 C 6.4951 6.0 0.0 0
M  V30 8 C 3.8971 1.5 0.0 0
M  V30 9 C 6.4951 1.5 0.0 0
M  V30 10 C 9.0932 4.5 0.0 0
M  V30 11 C 7.7942 6.75 0.0 0
M  V30 12 C 3.8971 0.0 0.0 0
M  V30 13 C 6.4951 0.0 0.0 0
M  V30 14 C 9.0932 6.0 0.0 0
M  V30 15 C 10.3923 3.75 0.0 0
M  V30 16 C 2.598 -0.75 0.0 0
M  V30 17 C 5.1961 -0.75 0.0 0
M  V30 18 C 10.3923 6.75 0.0 0
M  V30 19 C 11.6913 4.5 0.0 0
M  V30 20 O 2.598 -2.25 0.0 0
M  V30 21 N 1.299 0.0 0.0 0
M  V30 22 C 11.6913 6.0 0.0 0
M  V30 23 C 0.0 -0.75 0.0 0
M  V30 24 C -1.299 0.0 0.0 0
M  V30 25 C 0.0 -2.25 0.0 0
M  V30 26 C -1.299 1.5 0.0 0
M  V30 27 C -2.598 -0.75 0.0 0
M  V30 28 C -1.299 -3.0 0.0 0
M  V30 29 O 0.0 2.25 0.0 0
M  V30 30 O -2.598 2.25 0.0 0
M  V30 31 C -2.598 -2.25 0.0 0
M  V30 32 C -3.8971 -3.0 0.0 0
M  V30 33 F -3.1471 -4.299 0.0 0
M  V30 34 F -5.1961 -3.75 0.0 0
M  V30 35 F -4.6471 -1.7009 0.0 0
M  V30 END ATOM
M  V30 BEGIN BOND
M  V30 1 2 1 2
M  V30 2 2 1 3
M  V30 3 1 1 4
M  V30 4 1 1 5
M  V30 5 1 4 6
M  V30 6 1 4 7
M  V30 7 2 5 8
M  V30 8 1 5 9
M  V30 9 1 6 10
M  V30 10 1 7 11
M  V30 11 1 8 12
M  V30 12 2 9 13
M  V30 13 2 10 14
M  V30 14 1 10 15
M  V30 15 1 12 16
M  V30 16 2 12 17
M  V30 17 1 14 18
M  V30 18 2 15 19
M  V30 19 2 16 20
M  V30 20 1 16 21
M  V30 21 2 18 22
M  V30 22 1 21 23
M  V30 23 2 23 24
M  V30 24 1 23 25
M  V30 25 1 24 26
M  V30 26 1 24 27
M  V30 27 2 25 28
M  V30 28 2 26 29
M  V30 29 1 26 30
M  V30 30 2 27 31
M  V30 31 1 31 32
M  V30 32 1 32 33
M  V30 33 1 32 34
M  V30 34 1 32 35
M  V30 35 1 11 14
M  V30 36 1 13 17
M  V30 37 1 19 22
M  V30 38 1 28 31
M  V30 END BOND
M  V30 END CTAB
M  END
>  <Molecule ChEMBL ID>
CHEMBL522619

>  <Smiles>
O=C(Nc1ccc(C(F)(F)F)cc1C(=O)O)c1cccc(S(=O)(=O)N2CCc3ccccc3C2)c1

>  <IC50_nM>
3162.28

>  <Assay Description>
Agonist activity at PPARgamma

$$$$
CHEMBL1760403
Actelion Java MolfileCreator 2.0

  0  0  0  0  0  0              0 V3000
M  V30 BEGIN CTAB
M  V30 COUNTS 36 38 0 0 0
M  V30 BEGIN ATOM
M  V30 1 Cl -1.299 -7.5 0.0 0
M  V30 2 C 0.0 -6.75 0.0 0
M  V30 3 C 0.0 -5.25 0.0 0
M  V30 4 C 1.299 -7.5 0.0 0
M  V30 5 C 1.299 -4.5 0.0 0
M  V30 6 C 2.598 -6.75 0.0 0
M  V30 7 C 2.598 -5.25 0.0 0
M  V30 8 C 3.8971 -4.5 0.0 0
M  V30 9 C 3.8971 -3.0 0.0 0
M  V30 10 C 5.1961 -5.25 0.0 0
M  V30 11 C 5.1961 -2.25 0.0 0
M  V30 12 C 2.598 -2.25 0.0 0
M  V30 13 C 6.4951 -4.5 0.0 0
M  V30 14 N 5.1961 -0.75 0.0 0
M  V30 15 C 6.4951 -3.0 0.0 0
M  V30 16 S 6.4951 0.0 0.0 0
M  V30 17 C 3.8971 0.0 0.0 0
M  V30 18 O 7.2451 1.299 0.0 0
M  V30 19 O 5.7451 1.299 0.0 0
M  V30 20 C 7.7942 -0.75 0.0 0
M  V30 21 C 2.598 -0.75 0.0 0
M  V30 22 C 9.0932 0.0 0.0 0
M  V30 23 C 7.7942 -2.25 0.0 0
M  V30 24 C 1.299 0.0 0.0 0
M  V30 25 F 9.0932 1.5 0.0 0
M  V30 26 C 10.3923 -0.75 0.0 0
M  V30 27 C 9.0932 -3.0 0.0 0
M  V30 28 C 0.0 -0.75 0.0 0
M  V30 29 F 11.6913 0.0 0.0 0
M  V30 30 C 10.3923 -2.25 0.0 0
M  V30 31 O 11.6913 -3.0 0.0 0
M  V30 32 C 11.6913 -4.5 0.0 0 CFG=2
M  V30 33 C 12.9903 -5.25 0.0 0
M  V30 34 C 10.3923 -5.25 0.0 0
M  V30 35 O 14.2894 -4.5 0.0 0
M  V30 36 O 12.9903 -6.75 0.0 0
M  V30 END ATOM
M  V30 BEGIN BOND
M  V30 1 1 1 2
M  V30 2 2 2 3
M  V30 3 1 2 4
M  V30 4 1 3 5
M  V30 5 2 4 6
M  V30 6 2 5 7
M  V30 7 1 7 8
M  V30 8 2 8 9
M  V30 9 1 8 10
M  V30 10 1 9 11
M  V30 11 1 9 12
M  V30 12 2 10 13
M  V30 13 1 11 14
M  V30 14 2 11 15
M  V30 15 1 14 16
M  V30 16 1 14 17
M  V30 17 2 16 18
M  V30 18 2 16 19
M  V30 19 1 16 20
M  V30 20 1 17 21
M  V30 21 2 20 22
M  V30 22 1 20 23
M  V30 23 1 21 24
M  V30 24 1 22 25
M  V30 25 1 22 26
M  V30 26 2 23 27
M  V30 27 1 24 28
M  V30 28 1 26 29
M  V30 29 2 26 30
M  V30 30 1 30 31
M  V30 31 1 31 32
M  V30 32 1 32 33
M  V30 33 1 32 34 CFG=3
M  V30 34 2 33 35
M  V30 35 1 33 36
M  V30 36 1 6 7
M  V30 37 1 13 15
M  V30 38 1 27 30
M  V30 END BOND
M  V30 BEGIN COLLECTION
M  V30 MDLV30/STERAC1 ATOMS=(1 32)
M  V30 END COLLECTION
M  V30 END CTAB
M  END
>  <Molecule ChEMBL ID>
CHEMBL1760403

>  <Smiles>
CCCCN(c1cccc(-c2ccc(Cl)cc2)c1C)S(=O)(=O)c1ccc(OC(C)C(=O)O)c(F)c1F

>  <IC50_nM>
3162.28

>  <Assay Description>
Displacement of [3H]GW 2433 from human PPARgamma by scintillation proximity assay

$$$$
CHEMBL498608
Actelion Java MolfileCreator 2.0

  0  0  0  0  0  0              0 V3000
M  V30 BEGIN CTAB
M  V30 COUNTS 33 36 0 0 0
M  V30 BEGIN ATOM
M  V30 1 Cl 7.7942 2.25 0.0 0
M  V30 2 C 6.4951 1.5 0.0 0
M  V30 3 C 6.4951 0.0 0.0 0
M  V30 4 C 5.1961 2.25 0.0 0
M  V30 5 C 5.1961 -0.75 0.0 0
M  V30 6 C 3.8971 1.5 0.0 0
M  V30 7 C 3.8971 0.0 0.0 0
M  V30 8 C 5.1961 -2.25 0.0 0
M  V30 9 N 2.598 -0.75 0.0 0
M  V30 10 O 6.4951 -3.0 0.0 0
M  V30 11 O 3.8971 -3.0 0.0 0
M  V30 12 C 1.299 0.0 0.0 0
M  V30 13 O 1.299 1.5 0.0 0
M  V30 14 C 0.0 -0.75 0.0 0
M  V30 15 C -1.299 0.0 0.0 0
M  V30 16 C 0.0 -2.25 0.0 0
M  V30 17 C -2.598 -0.75 0.0 0
M  V30 18 C -1.299 -3.0 0.0 0
M  V30 19 S -3.8971 0.0 0.0 0
M  V30 20 C -2.598 -2.25 0.0 0
M  V30 21 O -3.1471 1.299 0.0 0
M  V30 22 O -4.6471 1.299 0.0 0
M  V30 23 N -5.1961 -0.75 0.0 0
M  V30 24 C -6.4951 0.0 0.0 0
M  V30 25 C -5.1961 -2.25 0.0 0
M  V30 26 C -7.7942 -0.75 0.0 0
M  V30 27 C -6.4951 -3.0 0.0 0
M  V30 28 C -7.7942 -2.25 0.0 0
M  V30 29 C -9.0932 0.0 0.0 0
M  V30 30 C -9.0932 -3.0 0.0 0
M  V30 31 C -10.3923 -0.75 0.0 0
M  V30 32 C -10.3923 -2.25 0.0 0
M  V30 33 F -11.6913 0.0 0.0 0
M  V30 END ATOM
M  V30 BEGIN BOND
M  V30 1 1 1 2
M  V30 2 2 2 3
M  V30 3 1 2 4
M  V30 4 1 3 5
M  V30 5 2 4 6
M  V30 6 2 5 7
M  V30 7 1 5 8
M  V30 8 1 7 9
M  V30 9 2 8 10
M  V30 10 1 8 11
M  V30 11 1 9 12
M  V30 12 2 12 13
M  V30 13 1 12 14
M  V30 14 2 14 15
M  V30 15 1 14 16
M  V30 16 1 15 17
M  V30 17 2 16 18
M  V30 18 1 17 19
M  V30 19 2 17 20
M  V30 20 2 19 21
M  V30 21 2 19 22
M  V30 22 1 19 23
M  V30 23 1 23 24
M  V30 24 1 23 25
M  V30 25 1 24 26
M  V30 26 1 25 27
M  V30 27 2 26 28
M  V30 28 1 26 29
M  V30 29 1 28 30
M  V30 30 2 29 31
M  V30 31 2 30 32
M  V30 32 1 31 33
M  V30 33 1 6 7
M  V30 34 1 18 20
M  V30 35 1 27 28
M  V30 36 1 31 32
M  V30 END BOND
M  V30 END CTAB
M  END
>  <Molecule ChEMBL ID>
CHEMBL498608

>  <Smiles>
O=C(Nc1ccc(Cl)cc1C(=O)O)c1cccc(S(=O)(=O)N2CCc3ccc(F)cc3C2)c1

>  <IC50_nM>
3162.28

>  <Assay Description>
Displacement of radiolabeled ligand from human PPARgamma by competition-binding assay

$$$$
CHEMBL498608
Actelion Java MolfileCreator 2.0

  0  0  0  0  0  0              0 V3000
M  V30 BEGIN CTAB
M  V30 COUNTS 33 36 0 0 0
M  V30 BEGIN ATOM
M  V30 1 Cl 7.7942 2.25 0.0 0
M  V30 2 C 6.4951 1.5 0.0 0
M  V30 3 C 6.4951 0.0 0.0 0
M  V30 4 C 5.1961 2.25 0.0 0
M  V30 5 C 5.1961 -0.75 0.0 0
M  V30 6 C 3.8971 1.5 0.0 0
M  V30 7 C 3.8971 0.0 0.0 0
M  V30 8 C 5.1961 -2.25 0.0 0
M  V30 9 N 2.598 -0.75 0.0 0
M  V30 10 O 6.4951 -3.0 0.0 0
M  V30 11 O 3.8971 -3.0 0.0 0
M  V30 12 C 1.299 0.0 0.0 0
M  V30 13 O 1.299 1.5 0.0 0
M  V30 14 C 0.0 -0.75 0.0 0
M  V30 15 C -1.299 0.0 0.0 0
M  V30 16 C 0.0 -2.25 0.0 0
M  V30 17 C -2.598 -0.75 0.0 0
M  V30 18 C -1.299 -3.0 0.0 0
M  V30 19 S -3.8971 0.0 0.0 0
M  V30 20 C -2.598 -2.25 0.0 0
M  V30 21 O -3.1471 1.299 0.0 0
M  V30 22 O -4.6471 1.299 0.0 0
M  V30 23 N -5.1961 -0.75 0.0 0
M  V30 24 C -6.4951 0.0 0.0 0
M  V30 25 C -5.1961 -2.25 0.0 0
M  V30 26 C -7.7942 -0.75 0.0 0
M  V30 27 C -6.4951 -3.0 0.0 0
M  V30 28 C -7.7942 -2.25 0.0 0
M  V30 29 C -9.0932 0.0 0.0 0
M  V30 30 C -9.0932 -3.0 0.0 0
M  V30 31 C -10.3923 -0.75 0.0 0
M  V30 32 C -10.3923 -2.25 0.0 0
M  V30 33 F -11.6913 0.0 0.0 0
M  V30 END ATOM
M  V30 BEGIN BOND
M  V30 1 1 1 2
M  V30 2 2 2 3
M  V30 3 1 2 4
M  V30 4 1 3 5
M  V30 5 2 4 6
M  V30 6 2 5 7
M  V30 7 1 5 8
M  V30 8 1 7 9
M  V30 9 2 8 10
M  V30 10 1 8 11
M  V30 11 1 9 12
M  V30 12 2 12 13
M  V30 13 1 12 14
M  V30 14 2 14 15
M  V30 15 1 14 16
M  V30 16 1 15 17
M  V30 17 2 16 18
M  V30 18 1 17 19
M  V30 19 2 17 20
M  V30 20 2 19 21
M  V30 21 2 19 22
M  V30 22 1 19 23
M  V30 23 1 23 24
M  V30 24 1 23 25
M  V30 25 1 24 26
M  V30 26 1 25 27
M  V30 27 2 26 28
M  V30 28 1 26 29
M  V30 29 1 28 30
M  V30 30 2 29 31
M  V30 31 2 30 32
M  V30 32 1 31 33
M  V30 33 1 6 7
M  V30 34 1 18 20
M  V30 35 1 27 28
M  V30 36 1 31 32
M  V30 END BOND
M  V30 END CTAB
M  END
>  <Molecule ChEMBL ID>
CHEMBL498608

>  <Smiles>
O=C(Nc1ccc(Cl)cc1C(=O)O)c1cccc(S(=O)(=O)N2CCc3ccc(F)cc3C2)c1

>  <IC50_nM>
3162.28

>  <Assay Description>
Agonist activity at PPARgamma

$$$$
CHEMBL522577
Actelion Java MolfileCreator 2.0

  0  0  0  0  0  0              0 V3000
M  V30 BEGIN CTAB
M  V30 COUNTS 34 37 0 0 0
M  V30 BEGIN ATOM
M  V30 1 Cl 7.7942 2.25 0.0 0
M  V30 2 C 6.4951 1.5 0.0 0
M  V30 3 C 6.4951 0.0 0.0 0
M  V30 4 C 5.1961 2.25 0.0 0
M  V30 5 C 5.1961 -0.75 0.0 0
M  V30 6 C 3.8971 1.5 0.0 0
M  V30 7 C 3.8971 0.0 0.0 0
M  V30 8 C 5.1961 -2.25 0.0 0
M  V30 9 N 2.598 -0.75 0.0 0
M  V30 10 O 6.4951 -3.0 0.0 0
M  V30 11 O 3.8971 -3.0 0.0 0
M  V30 12 C 1.299 0.0 0.0 0
M  V30 13 O 1.299 1.5 0.0 0
M  V30 14 C 0.0 -0.75 0.0 0
M  V30 15 C -1.299 0.0 0.0 0
M  V30 16 C 0.0 -2.25 0.0 0
M  V30 17 C -2.598 -0.75 0.0 0
M  V30 18 C -1.299 -3.0 0.0 0
M  V30 19 S -3.8971 0.0 0.0 0
M  V30 20 C -2.598 -2.25 0.0 0
M  V30 21 O -3.1471 1.299 0.0 0
M  V30 22 O -4.6471 1.299 0.0 0
M  V30 23 N -5.1961 -0.75 0.0 0
M  V30 24 C -6.5664 -0.1398 0.0 0
M  V30 25 C -5.3529 -2.2417 0.0 0
M  V30 26 C -7.5701 -1.2546 0.0 0
M  V30 27 C -7.03 1.2866 0.0 0
M  V30 28 C -6.8201 -2.5536 0.0 0
M  V30 29 C -9.0373 -0.9427 0.0 0
M  V30 30 C -8.4972 1.5985 0.0 0
M  V30 31 C -9.5009 0.4838 0.0 0
M  V30 32 C -10.041 -2.0574 0.0 0
M  V30 33 O -10.9681 0.7957 0.0 0
M  V30 34 C -11.9718 -0.319 0.0 0
M  V30 END ATOM
M  V30 BEGIN BOND
M  V30 1 1 1 2
M  V30 2 2 2 3
M  V30 3 1 2 4
M  V30 4 1 3 5
M  V30 5 2 4 6
M  V30 6 2 5 7
M  V30 7 1 5 8
M  V30 8 1 7 9
M  V30 9 2 8 10
M  V30 10 1 8 11
M  V30 11 1 9 12
M  V30 12 2 12 13
M  V30 13 1 12 14
M  V30 14 2 14 15
M  V30 15 1 14 16
M  V30 16 1 15 17
M  V30 17 2 16 18
M  V30 18 1 17 19
M  V30 19 2 17 20
M  V30 20 2 19 21
M  V30 21 2 19 22
M  V30 22 1 19 23
M  V30 23 1 23 24
M  V30 24 1 23 25
M  V30 25 2 24 26
M  V30 26 1 24 27
M  V30 27 2 25 28
M  V30 28 1 26 29
M  V30 29 2 27 30
M  V30 30 2 29 31
M  V30 31 1 29 32
M  V30 32 1 31 33
M  V30 33 1 33 34
M  V30 34 1 6 7
M  V30 35 1 18 20
M  V30 36 1 26 28
M  V30 37 1 30 31
M  V30 END BOND
M  V30 END CTAB
M  END
>  <Molecule ChEMBL ID>
CHEMBL522577

>  <Smiles>
COc1ccc2c(ccn2S(=O)(=O)c2cccc(C(=O)Nc3ccc(Cl)cc3C(=O)O)c2)c1C

>  <IC50_nM>
3162.28

>  <Assay Description>
Agonist activity at PPARgamma

$$$$
CHEMBL4564535
Actelion Java MolfileCreator 2.0

  0  0  0  0  0  0              0 V3000
M  V30 BEGIN CTAB
M  V30 COUNTS 41 44 0 0 0
M  V30 BEGIN ATOM
M  V30 1 F 0.0 4.4999 0.0 0
M  V30 2 C 0.866 3.9999 0.0 0
M  V30 3 C 0.866 2.9999 0.0 0
M  V30 4 C 1.732 4.4999 0.0 0
M  V30 5 C 1.732 2.4999 0.0 0
M  V30 6 C 2.598 3.9999 0.0 0
M  V30 7 C 2.598 3.0 0.0 0
M  V30 8 C 3.4641 2.5 0.0 0
M  V30 9 O 3.4641 1.4999 0.0 0
M  V30 10 C 4.3301 1.0 0.0 0
M  V30 11 C 4.3301 0.0 0.0 0
M  V30 12 C 5.1961 1.5 0.0 0
M  V30 13 C 5.1961 -0.4999 0.0 0
M  V30 14 C 3.4641 -0.5 0.0 0
M  V30 15 C 6.0621 1.0 0.0 0
M  V30 16 C 6.0621 0.0 0.0 0
M  V30 17 C 3.4641 -1.5 0.0 0
M  V30 18 O 6.9282 -0.4999 0.0 0
M  V30 19 C 2.598 -1.9999 0.0 0
M  V30 20 C 4.3301 -2.0 0.0 0
M  V30 21 C 6.9282 -1.4999 0.0 0
M  V30 22 O 1.732 -1.4999 0.0 0
M  V30 23 O 2.598 -2.9999 0.0 0
M  V30 24 C 4.3301 -3.0 0.0 0
M  V30 25 C 7.7942 -1.9999 0.0 0
M  V30 26 C 5.1961 -3.5 0.0 0
M  V30 27 C 7.7942 -2.9999 0.0 0
M  V30 28 C 8.6602 -1.4999 0.0 0
M  V30 29 C 8.6602 -3.4999 0.0 0
M  V30 30 C 9.5262 -1.9999 0.0 0
M  V30 31 C 8.6602 -4.4999 0.0 0
M  V30 32 C 9.5262 -2.9999 0.0 0
M  V30 33 O 7.7942 -5.0 0.0 0
M  V30 34 C 9.5262 -4.9999 0.0 0
M  V30 35 N 10.3923 -3.4999 0.0 0
M  V30 36 C 7.7942 -5.9999 0.0 0
M  V30 37 C 10.3923 -4.4999 0.0 0
M  V30 38 C 11.2583 -4.9999 0.0 0
M  V30 39 F 11.7583 -4.1339 0.0 0
M  V30 40 F 12.1243 -5.4999 0.0 0
M  V30 41 F 10.7583 -5.866 0.0 0
M  V30 END ATOM
M  V30 BEGIN BOND
M  V30 1 1 1 2
M  V30 2 2 2 3
M  V30 3 1 2 4
M  V30 4 1 3 5
M  V30 5 2 4 6
M  V30 6 2 5 7
M  V30 7 1 7 8
M  V30 8 1 8 9
M  V30 9 1 9 10
M  V30 10 2 10 11
M  V30 11 1 10 12
M  V30 12 1 11 13
M  V30 13 1 11 14
M  V30 14 2 12 15
M  V30 15 2 13 16
M  V30 16 2 14 17
M  V30 17 1 16 18
M  V30 18 1 17 19
M  V30 19 1 17 20
M  V30 20 1 18 21
M  V30 21 2 19 22
M  V30 22 1 19 23
M  V30 23 1 20 24
M  V30 24 1 21 25
M  V30 25 1 24 26
M  V30 26 2 25 27
M  V30 27 1 25 28
M  V30 28 1 27 29
M  V30 29 2 28 30
M  V30 30 2 29 31
M  V30 31 1 29 32
M  V30 32 1 31 33
M  V30 33 1 31 34
M  V30 34 2 32 35
M  V30 35 1 33 36
M  V30 36 2 34 37
M  V30 37 1 37 38
M  V30 38 1 38 39
M  V30 39 1 38 40
M  V30 40 1 38 41
M  V30 41 1 6 7
M  V30 42 1 15 16
M  V30 43 1 30 32
M  V30 44 1 35 37
M  V30 END BOND
M  V30 END CTAB
M  END
>  <Molecule ChEMBL ID>
CHEMBL4564535

>  <Smiles>
CCC/C(=C\c1cc(OCc2ccc3nc(C(F)(F)F)cc(OC)c3c2)ccc1OCc1ccc(F)cc1)C(=O)O

>  <IC50_nM>
3200

>  <Assay Description>
Antagonist actvity in pFA-GAL4-DBD fused PPARgamma LBD (unknown origin) transfected in HEK293T cells assessed as inhibition of rosiglitazone-induced PPARgamma transactivation incubated for 24 hrs by luciferase reporter gene assay

$$$$
CHEMBL370024
Actelion Java MolfileCreator 2.0

  0  0  0  0  0  0              0 V3000
M  V30 BEGIN CTAB
M  V30 COUNTS 31 33 0 0 0
M  V30 BEGIN ATOM
M  V30 1 Cl 6.0621 1.0 0.0 0
M  V30 2 C 6.0621 0.0 0.0 0
M  V30 3 C 5.1961 -0.5 0.0 0
M  V30 4 C 6.9282 -0.4999 0.0 0
M  V30 5 O 4.3301 0.0 0.0 0
M  V30 6 C 5.1961 -1.4999 0.0 0
M  V30 7 C 6.9282 -1.4999 0.0 0
M  V30 8 C 3.4641 -0.5 0.0 0
M  V30 9 C 6.0621 -1.9999 0.0 0
M  V30 10 O 7.7942 -1.9999 0.0 0
M  V30 11 C 2.598 0.0 0.0 0
M  V30 12 C 8.6602 -1.4999 0.0 0
M  V30 13 C 1.732 -0.5 0.0 0
M  V30 14 F 8.1602 -0.6339 0.0 0
M  V30 15 F 9.5262 -0.9999 0.0 0
M  V30 16 F 9.1602 -2.366 0.0 0
M  V30 17 O 0.866 0.0 0.0 0
M  V30 18 C 0.0 -0.5 0.0 0
M  V30 19 C -0.866 0.0 0.0 0
M  V30 20 C 0.0 -1.5 0.0 0
M  V30 21 C -1.732 -0.4999 0.0 0
M  V30 22 C -0.866 -1.9999 0.0 0
M  V30 23 O -2.6831 -0.1909 0.0 0
M  V30 24 C -1.732 -1.4999 0.0 0
M  V30 25 C -3.2708 -0.9999 0.0 0 CFG=1
M  V30 26 C -2.6831 -1.809 0.0 0
M  V30 27 C -3.7248 -1.891 0.0 0
M  V30 28 C -4.2708 -0.9999 0.0 0
M  V30 29 O -3.1802 -2.7296 0.0 0
M  V30 30 O -4.7235 -1.9433 0.0 0
M  V30 31 C -4.7708 -0.1339 0.0 0
M  V30 END ATOM
M  V30 BEGIN BOND
M  V30 1 1 1 2
M  V30 2 2 2 3
M  V30 3 1 2 4
M  V30 4 1 3 5
M  V30 5 1 3 6
M  V30 6 2 4 7
M  V30 7 1 5 8
M  V30 8 2 6 9
M  V30 9 1 7 10
M  V30 10 1 8 11
M  V30 11 1 10 12
M  V30 12 1 11 13
M  V30 13 1 12 14
M  V30 14 1 12 15
M  V30 15 1 12 16
M  V30 16 1 13 17
M  V30 17 1 17 18
M  V30 18 2 18 19
M  V30 19 1 18 20
M  V30 20 1 19 21
M  V30 21 2 20 22
M  V30 22 1 21 23
M  V30 23 2 21 24
M  V30 24 1 23 25
M  V30 25 1 24 26
M  V30 26 1 25 27
M  V30 27 1 25 28 CFG=3
M  V30 28 2 27 29
M  V30 29 1 27 30
M  V30 30 1 28 31
M  V30 31 1 7 9
M  V30 32 1 22 24
M  V30 33 1 25 26
M  V30 END BOND
M  V30 BEGIN COLLECTION
M  V30 MDLV30/STERAC1 ATOMS=(1 25)
M  V30 END COLLECTION
M  V30 END CTAB
M  END
>  <Molecule ChEMBL ID>
CHEMBL370024

>  <Smiles>
CCC1(C(=O)O)Cc2ccc(OCCCOc3ccc(OC(F)(F)F)cc3Cl)cc2O1

>  <IC50_nM>
3220

>  <Assay Description>
In vitro binding affinity for PPAR-gamma

$$$$
CHEMBL247720
Actelion Java MolfileCreator 2.0

  0  0  0  0  0  0              0 V3000
M  V30 BEGIN CTAB
M  V30 COUNTS 37 41 0 0 0
M  V30 BEGIN ATOM
M  V30 1 O 5.1961 2.25 0.0 0
M  V30 2 C 3.8971 1.5 0.0 0
M  V30 3 O 2.598 2.25 0.0 0
M  V30 4 C 3.8971 0.0 0.0 0
M  V30 5 N 2.598 -0.75 0.0 0
M  V30 6 C 2.598 -2.25 0.0 0
M  V30 7 C 1.299 0.0 0.0 0
M  V30 8 C 3.8971 -3.0 0.0 0
M  V30 9 C 0.0 -0.75 0.0 0
M  V30 10 C 5.1961 -2.25 0.0 0
M  V30 11 C 3.8971 -4.5 0.0 0
M  V30 12 C -1.299 0.0 0.0 0
M  V30 13 C 0.0 -2.25 0.0 0
M  V30 14 C 6.4951 -2.9999 0.0 0
M  V30 15 C 5.1961 -5.25 0.0 0
M  V30 16 C -2.598 -0.7499 0.0 0
M  V30 17 C -1.299 -2.9999 0.0 0
M  V30 18 O 7.9217 -2.5364 0.0 0
M  V30 19 C 6.4951 -4.5 0.0 0
M  V30 20 C -2.598 -2.2499 0.0 0
M  V30 21 C 8.8034 -3.75 0.0 0
M  V30 22 O 7.9217 -4.9635 0.0 0
M  V30 23 O -3.8971 -2.9999 0.0 0
M  V30 24 C -3.8971 -4.4999 0.0 0
M  V30 25 C -5.1961 -5.2499 0.0 0
M  V30 26 C -5.1961 -6.7499 0.0 0
M  V30 27 N -6.4096 -7.6316 0.0 0
M  V30 28 C -3.9826 -7.6316 0.0 0
M  V30 29 C -5.9461 -9.0582 0.0 0
M  V30 30 O -4.4461 -9.0582 0.0 0
M  V30 31 C -2.556 -7.1681 0.0 0
M  V30 32 C -6.8278 -10.2717 0.0 0
M  V30 33 C -8.3196 -10.1149 0.0 0
M  V30 34 C -6.2177 -11.6421 0.0 0
M  V30 35 C -9.2012 -11.3285 0.0 0
M  V30 36 C -7.0994 -12.8556 0.0 0
M  V30 37 C -8.5911 -12.6988 0.0 0
M  V30 END ATOM
M  V30 BEGIN BOND
M  V30 1 2 1 2
M  V30 2 1 2 3
M  V30 3 1 2 4
M  V30 4 1 4 5
M  V30 5 1 5 6
M  V30 6 1 5 7
M  V30 7 1 6 8
M  V30 8 1 7 9
M  V30 9 2 8 10
M  V30 10 1 8 11
M  V30 11 2 9 12
M  V30 12 1 9 13
M  V30 13 1 10 14
M  V30 14 2 11 15
M  V30 15 1 12 16
M  V30 16 2 13 17
M  V30 17 1 14 18
M  V30 18 2 14 19
M  V30 19 2 16 20
M  V30 20 1 18 21
M  V30 21 1 19 22
M  V30 22 1 20 23
M  V30 23 1 23 24
M  V30 24 1 24 25
M  V30 25 1 25 26
M  V30 26 1 26 27
M  V30 27 2 26 28
M  V30 28 2 27 29
M  V30 29 1 28 30
M  V30 30 1 28 31
M  V30 31 1 29 32
M  V30 32 2 32 33
M  V30 33 1 32 34
M  V30 34 1 33 35
M  V30 35 2 34 36
M  V30 36 2 35 37
M  V30 37 1 15 19
M  V30 38 1 17 20
M  V30 39 1 21 22
M  V30 40 1 29 30
M  V30 41 1 36 37
M  V30 END BOND
M  V30 END CTAB
M  END
>  <Molecule ChEMBL ID>
CHEMBL247720

>  <Smiles>
Cc1oc(-c2ccccc2)nc1CCOc1ccc(CN(CC(=O)O)Cc2ccc3c(c2)OCO3)cc1

>  <IC50_nM>
3290

>  <Assay Description>
Displacement of fluorescein labeled ligand from PPARgamma receptor by fluorescence polarization assay

$$$$
CHEMBL375270
Actelion Java MolfileCreator 2.0

  0  0  0  0  0  0              0 V3000
M  V30 BEGIN CTAB
M  V30 COUNTS 19 20 0 0 0
M  V30 BEGIN ATOM
M  V30 1 Cl 1.732 1.4999 0.0 0
M  V30 2 C 2.598 1.0 0.0 0
M  V30 3 C 2.598 0.0 0.0 0
M  V30 4 C 3.4641 1.4999 0.0 0
M  V30 5 C 1.732 -0.5 0.0 0
M  V30 6 C 3.4641 -0.5 0.0 0
M  V30 7 C 4.3301 1.0 0.0 0
M  V30 8 O 1.732 -1.5 0.0 0
M  V30 9 N 0.866 0.0 0.0 0
M  V30 10 C 4.3301 0.0 0.0 0
M  V30 11 C 0.0 -0.5 0.0 0
M  V30 12 N 5.1961 -0.5 0.0 0 CHG=1
M  V30 13 C -0.866 0.0 0.0 0
M  V30 14 C 0.0 -1.4999 0.0 0
M  V30 15 O 5.1961 -1.5 0.0 0
M  V30 16 O 6.0621 0.0 0.0 0 CHG=-1
M  V30 17 C -1.732 -0.4999 0.0 0
M  V30 18 C -0.866 -1.9999 0.0 0
M  V30 19 C -1.732 -1.4999 0.0 0
M  V30 END ATOM
M  V30 BEGIN BOND
M  V30 1 1 1 2
M  V30 2 2 2 3
M  V30 3 1 2 4
M  V30 4 1 3 5
M  V30 5 1 3 6
M  V30 6 2 4 7
M  V30 7 2 5 8
M  V30 8 1 5 9
M  V30 9 2 6 10
M  V30 10 1 9 11
M  V30 11 1 10 12
M  V30 12 2 11 13
M  V30 13 1 11 14
M  V30 14 2 12 15
M  V30 15 1 12 16
M  V30 16 1 13 17
M  V30 17 2 14 18
M  V30 18 2 17 19
M  V30 19 1 7 10
M  V30 20 1 18 19
M  V30 END BOND
M  V30 END CTAB
M  END
>  <Molecule ChEMBL ID>
CHEMBL375270

>  <Smiles>
O=C(Nc1ccccc1)c1cc([N+](=O)[O-])ccc1Cl

>  <IC50_nM>
3300

>  <Assay Description>
Antagonist activity at human PPARgamma receptor expressed in Saccharomyces cerevisiae AH109 co-transfected with mouse CBP assessed as inhibition of rosiglitazone-induced LBD-CBP interaction by alpha-galactosidase based yeast two hybrid assay

$$$$
CHEMBL1091664
Actelion Java MolfileCreator 2.0

  0  0  0  0  0  0              0 V3000
M  V30 BEGIN CTAB
M  V30 COUNTS 37 40 0 0 0
M  V30 BEGIN ATOM
M  V30 1 Cl 12.0709 15.4123 0.0 0
M  V30 2 C 11.1892 14.1988 0.0 0
M  V30 3 C 9.6974 14.3556 0.0 0
M  V30 4 C 11.7993 12.8285 0.0 0
M  V30 5 C 8.8158 13.1421 0.0 0
M  V30 6 C 10.9176 11.6149 0.0 0
M  V30 7 C 9.4259 11.7717 0.0 0
M  V30 8 C 8.5442 10.5582 0.0 0
M  V30 9 S 7.0442 10.5582 0.0 0
M  V30 10 N 9.0077 9.1316 0.0 0
M  V30 11 C 6.5807 9.1316 0.0 0
M  V30 12 C 7.7942 8.25 0.0 0
M  V30 13 C 5.1541 8.6681 0.0 0
M  V30 14 C 7.7942 6.75 0.0 0
M  V30 15 O 6.4951 6.0 0.0 0
M  V30 16 C 6.4951 4.5 0.0 0
M  V30 17 C 5.1961 3.75 0.0 0
M  V30 18 C 7.7942 3.75 0.0 0
M  V30 19 C 5.1961 2.25 0.0 0
M  V30 20 C 7.7942 2.25 0.0 0
M  V30 21 C 6.4951 1.5 0.0 0
M  V30 22 C 3.8971 1.5 0.0 0
M  V30 23 N 3.8971 0.0 0.0 0
M  V30 24 C 5.1961 -0.75 0.0 0
M  V30 25 C 2.598 -0.75 0.0 0
M  V30 26 O 5.1961 -2.25 0.0 0
M  V30 27 O 6.4951 0.0 0.0 0
M  V30 28 C 1.299 0.0 0.0 0
M  V30 29 C 7.7942 -0.75 0.0 0
M  V30 30 O 1.299 1.5 0.0 0
M  V30 31 O 0.0 -0.75 0.0 0
M  V30 32 C 7.7942 -2.25 0.0 0
M  V30 33 C 9.0932 0.0 0.0 0
M  V30 34 C 9.0932 -3.0 0.0 0
M  V30 35 C 10.3923 -0.75 0.0 0
M  V30 36 C 10.3923 -2.25 0.0 0
M  V30 37 C 11.6913 -3.0 0.0 0
M  V30 END ATOM
M  V30 BEGIN BOND
M  V30 1 1 1 2
M  V30 2 2 2 3
M  V30 3 1 2 4
M  V30 4 1 3 5
M  V30 5 2 4 6
M  V30 6 2 5 7
M  V30 7 1 7 8
M  V30 8 1 8 9
M  V30 9 2 8 10
M  V30 10 1 9 11
M  V30 11 1 10 12
M  V30 12 1 11 13
M  V30 13 1 12 14
M  V30 14 1 14 15
M  V30 15 1 15 16
M  V30 16 2 16 17
M  V30 17 1 16 18
M  V30 18 1 17 19
M  V30 19 2 18 20
M  V30 20 2 19 21
M  V30 21 1 19 22
M  V30 22 1 22 23
M  V30 23 1 23 24
M  V30 24 1 23 25
M  V30 25 2 24 26
M  V30 26 1 24 27
M  V30 27 1 25 28
M  V30 28 1 27 29
M  V30 29 2 28 30
M  V30 30 1 28 31
M  V30 31 2 29 32
M  V30 32 1 29 33
M  V30 33 1 32 34
M  V30 34 2 33 35
M  V30 35 2 34 36
M  V30 36 1 36 37
M  V30 37 1 6 7
M  V30 38 2 11 12
M  V30 39 1 20 21
M  V30 40 1 35 36
M  V30 END BOND
M  V30 END CTAB
M  END
>  <Molecule ChEMBL ID>
CHEMBL1091664

>  <Smiles>
Cc1ccc(OC(=O)N(CC(=O)O)Cc2cccc(OCc3nc(-c4ccc(Cl)cc4)sc3C)c2)cc1

>  <IC50_nM>
3362

>  <Assay Description>
Binding affinity to human His-tagged PPARgamma LBD (Q203-Y477) expressed in Escherichia coli BL21 (DE3) by fluorescence polarization assay

$$$$
CHEMBL3596279
Actelion Java MolfileCreator 2.0

  0  0  0  0  0  0              0 V3000
M  V30 BEGIN CTAB
M  V30 COUNTS 31 35 0 0 0
M  V30 BEGIN ATOM
M  V30 1 Cl -0.866 0.9999 0.0 0
M  V30 2 C 0.0 1.4999 0.0 0
M  V30 3 C 0.866 0.9999 0.0 0
M  V30 4 C 0.0 2.4999 0.0 0
M  V30 5 C 1.732 1.5 0.0 0
M  V30 6 C 0.866 0.0 0.0 0
M  V30 7 C 0.866 3.0 0.0 0
M  V30 8 C 1.732 2.4999 0.0 0
M  V30 9 C 2.598 1.0 0.0 0
M  V30 10 O 1.732 -0.5 0.0 0
M  V30 11 C 0.0 -0.5 0.0 0
M  V30 12 C 3.098 0.1339 0.0 0
M  V30 13 C 3.598 0.9999 0.0 0
M  V30 14 N -0.9135 -0.0932 0.0 0
M  V30 15 N -0.1045 -1.4945 0.0 0
M  V30 16 C -1.5826 -0.8364 0.0 0
M  V30 17 C -1.0826 -1.7024 0.0 0
M  V30 18 C 0.5646 -2.2376 0.0 0
M  V30 19 C -2.5771 -0.7318 0.0 0
M  V30 20 N -1.3916 -2.6534 0.0 0
M  V30 21 C 0.2555 -3.1887 0.0 0
M  V30 22 C -2.9839 0.1816 0.0 0
M  V30 23 C -3.1649 -1.5408 0.0 0
M  V30 24 C -0.7225 -3.3966 0.0 0
M  V30 25 C -3.9784 0.2861 0.0 0
M  V30 26 C -4.1595 -1.4363 0.0 0
M  V30 27 O -4.3851 1.1997 0.0 0
M  V30 28 C -4.5662 -0.5228 0.0 0
M  V30 29 C -5.5607 -0.4182 0.0 0
M  V30 30 O -5.9675 0.4952 0.0 0
M  V30 31 O -6.1485 -1.2273 0.0 0
M  V30 END ATOM
M  V30 BEGIN BOND
M  V30 1 1 1 2
M  V30 2 2 2 3
M  V30 3 1 2 4
M  V30 4 1 3 5
M  V30 5 1 3 6
M  V30 6 2 4 7
M  V30 7 2 5 8
M  V30 8 1 5 9
M  V30 9 2 6 10
M  V30 10 1 6 11
M  V30 11 1 9 12
M  V30 12 1 9 13
M  V30 13 2 11 14
M  V30 14 1 11 15
M  V30 15 1 14 16
M  V30 16 1 15 17
M  V30 17 1 15 18
M  V30 18 1 16 19
M  V30 19 1 17 20
M  V30 20 2 18 21
M  V30 21 2 19 22
M  V30 22 1 19 23
M  V30 23 2 20 24
M  V30 24 1 22 25
M  V30 25 2 23 26
M  V30 26 1 25 27
M  V30 27 2 25 28
M  V30 28 1 28 29
M  V30 29 2 29 30
M  V30 30 1 29 31
M  V30 31 1 7 8
M  V30 32 1 12 13
M  V30 33 2 16 17
M  V30 34 1 21 24
M  V30 35 1 26 28
M  V30 END BOND
M  V30 END CTAB
M  END
>  <Molecule ChEMBL ID>
CHEMBL3596279

>  <Smiles>
O=C(O)c1ccc(-c2nc(C(=O)c3c(Cl)cccc3C3CC3)n3cccnc23)cc1O

>  <IC50_nM>
3400

>  <Assay Description>
Displacement of fluormone PPARgamma green from GST-tagged human PPARgamma-LBD after 2 hrs by fluorescence polarization assay

$$$$
CHEMBL272774
Actelion Java MolfileCreator 2.0

  0  0  0  0  0  0              0 V3000
M  V30 BEGIN CTAB
M  V30 COUNTS 38 42 0 0 0
M  V30 BEGIN ATOM
M  V30 1 O 4.355 -3.7071 0.0 0
M  V30 2 C 5.355 -3.7071 0.0 0
M  V30 3 N 6.0621 -4.4142 0.0 0
M  V30 4 C 6.0621 -3.0 0.0 0 CFG=1
M  V30 5 C 6.0621 -5.4142 0.0 0
M  V30 6 C 6.7692 -3.7071 0.0 0 CFG=2
M  V30 7 C 6.0621 -1.9999 0.0 0
M  V30 8 C 5.1961 -5.9142 0.0 0
M  V30 9 C 6.9282 -5.9142 0.0 0
M  V30 10 C 7.7692 -3.7071 0.0 0
M  V30 11 C 5.1961 -1.4999 0.0 0
M  V30 12 C 5.1961 -6.9142 0.0 0
M  V30 13 C 6.9282 -6.9142 0.0 0
M  V30 14 O 8.2692 -4.5731 0.0 0
M  V30 15 O 8.2692 -2.841 0.0 0
M  V30 16 C 5.1961 -0.5 0.0 0
M  V30 17 C 4.3301 -1.9999 0.0 0
M  V30 18 C 6.0621 -7.4142 0.0 0
M  V30 19 C 4.3301 0.0 0.0 0
M  V30 20 C 3.4641 -1.5 0.0 0
M  V30 21 O 6.0621 -8.4142 0.0 0
M  V30 22 C 3.4641 -0.5 0.0 0
M  V30 23 C 6.9282 -8.9142 0.0 0
M  V30 24 O 2.598 0.0 0.0 0
M  V30 25 C 1.732 -0.5 0.0 0
M  V30 26 C 0.866 0.0 0.0 0
M  V30 27 C 0.0 -0.5 0.0 0
M  V30 28 N -0.9135 -0.0932 0.0 0
M  V30 29 C -0.1045 -1.4945 0.0 0
M  V30 30 C -1.5826 -0.8364 0.0 0
M  V30 31 O -1.0826 -1.7024 0.0 0
M  V30 32 C 0.6386 -2.1636 0.0 0
M  V30 33 C -2.5771 -0.7318 0.0 0
M  V30 34 C -2.9839 0.1816 0.0 0
M  V30 35 C -3.1649 -1.5408 0.0 0
M  V30 36 C -3.9784 0.2861 0.0 0
M  V30 37 C -4.1595 -1.4363 0.0 0
M  V30 38 C -4.5662 -0.5228 0.0 0
M  V30 END ATOM
M  V30 BEGIN BOND
M  V30 1 2 1 2
M  V30 2 1 2 3
M  V30 3 1 2 4
M  V30 4 1 3 5
M  V30 5 1 3 6
M  V30 6 1 4 7 CFG=3
M  V30 7 2 5 8
M  V30 8 1 5 9
M  V30 9 1 6 10 CFG=3
M  V30 10 1 7 11
M  V30 11 1 8 12
M  V30 12 2 9 13
M  V30 13 2 10 14
M  V30 14 1 10 15
M  V30 15 2 11 16
M  V30 16 1 11 17
M  V30 17 2 12 18
M  V30 18 1 16 19
M  V30 19 2 17 20
M  V30 20 1 18 21
M  V30 21 2 19 22
M  V30 22 1 21 23
M  V30 23 1 22 24
M  V30 24 1 24 25
M  V30 25 1 25 26
M  V30 26 1 26 27
M  V30 27 1 27 28
M  V30 28 2 27 29
M  V30 29 2 28 30
M  V30 30 1 29 31
M  V30 31 1 29 32
M  V30 32 1 30 33
M  V30 33 2 33 34
M  V30 34 1 33 35
M  V30 35 1 34 36
M  V30 36 2 35 37
M  V30 37 2 36 38
M  V30 38 1 4 6
M  V30 39 1 13 18
M  V30 40 1 20 22
M  V30 41 1 30 31
M  V30 42 1 37 38
M  V30 END BOND
M  V30 BEGIN COLLECTION
M  V30 MDLV30/STEABS ATOMS=(2 4 6)
M  V30 END COLLECTION
M  V30 END CTAB
M  END
>  <Molecule ChEMBL ID>
CHEMBL272774

>  <Smiles>
COc1ccc(N2C(=O)[C@H](Cc3ccc(OCCc4nc(-c5ccccc5)oc4C)cc3)[C@@H]2C(=O)O)cc1

>  <IC50_nM>
3400

>  <Assay Description>
Inhibition of PPARgamma

$$$$
CHEMBL491324
Actelion Java MolfileCreator 2.0

  0  0  0  0  0  0              0 V3000
M  V30 BEGIN CTAB
M  V30 COUNTS 32 34 0 0 0
M  V30 BEGIN ATOM
M  V30 1 S 5.1961 -0.75 0.0 0
M  V30 2 O 4.4461 -2.049 0.0 0
M  V30 3 O 5.9461 -2.049 0.0 0
M  V30 4 N 3.8971 0.0 0.0 0
M  V30 5 C 6.4952 0.0 0.0 0
M  V30 6 C 2.598 -0.75 0.0 0
M  V30 7 C 7.7942 -0.75 0.0 0
M  V30 8 C 6.4952 1.5 0.0 0
M  V30 9 O 2.598 -2.25 0.0 0
M  V30 10 N 1.299 0.0 0.0 0
M  V30 11 C 9.0932 0.0 0.0 0
M  V30 12 C 7.7942 2.25 0.0 0
M  V30 13 C 0.0 -0.75 0.0 0
M  V30 14 C 9.0932 1.5 0.0 0
M  V30 15 C -1.299 0.0 0.0 0
M  V30 16 C 0.0 -2.25 0.0 0
M  V30 17 C 10.3923 2.25 0.0 0
M  V30 18 C -2.598 -0.75 0.0 0
M  V30 19 C -1.299 -3.0 0.0 0
M  V30 20 C 11.6913 1.5 0.0 0
M  V30 21 C -2.598 -2.25 0.0 0
M  V30 22 N 12.9904 2.25 0.0 0
M  V30 23 C -3.8971 -3.0 0.0 0
M  V30 24 S 14.2894 1.5 0.0 0
M  V30 25 O 13.5394 0.201 0.0 0
M  V30 26 O 15.0394 0.201 0.0 0
M  V30 27 C 15.5884 2.25 0.0 0
M  V30 28 C 16.8875 1.5 0.0 0
M  V30 29 C 15.5884 3.75 0.0 0
M  V30 30 C 18.1865 2.25 0.0 0
M  V30 31 C 16.8875 4.5 0.0 0
M  V30 32 C 18.1865 3.75 0.0 0
M  V30 END ATOM
M  V30 BEGIN BOND
M  V30 1 2 1 2
M  V30 2 2 1 3
M  V30 3 1 1 4
M  V30 4 1 1 5
M  V30 5 1 4 6
M  V30 6 2 5 7
M  V30 7 1 5 8
M  V30 8 2 6 9
M  V30 9 1 6 10
M  V30 10 1 7 11
M  V30 11 2 8 12
M  V30 12 1 10 13
M  V30 13 2 11 14
M  V30 14 1 13 15
M  V30 15 1 13 16
M  V30 16 1 14 17
M  V30 17 1 15 18
M  V30 18 1 16 19
M  V30 19 1 17 20
M  V30 20 1 18 21
M  V30 21 1 20 22
M  V30 22 1 21 23
M  V30 23 1 22 24
M  V30 24 2 24 25
M  V30 25 2 24 26
M  V30 26 1 24 27
M  V30 27 2 27 28
M  V30 28 1 27 29
M  V30 29 1 28 30
M  V30 30 2 29 31
M  V30 31 2 30 32
M  V30 32 1 12 14
M  V30 33 1 19 21
M  V30 34 1 31 32
M  V30 END BOND
M  V30 END CTAB
M  END
>  <Molecule ChEMBL ID>
CHEMBL491324

>  <Smiles>
CC1CCC(NC(=O)NS(=O)(=O)c2ccc(CCNS(=O)(=O)c3ccccc3)cc2)CC1

>  <IC50_nM>
3400

>  <Assay Description>
Displacement of fluormone-PPARgamma green from GST-tagged PPARgamma-LBD (unknown origin) by fluorescence polarization assay

$$$$
CHEMBL1173451
Actelion Java MolfileCreator 2.0

  0  0  0  0  0  0              0 V3000
M  V30 BEGIN CTAB
M  V30 COUNTS 31 35 0 0 0
M  V30 BEGIN ATOM
M  V30 1 O 2.598 3.9999 0.0 0
M  V30 2 C 2.598 2.9999 0.0 0
M  V30 3 O 3.4641 2.4999 0.0 0
M  V30 4 C 1.732 2.5 0.0 0
M  V30 5 C 1.732 1.5 0.0 0
M  V30 6 C 0.866 3.0 0.0 0
M  V30 7 C 2.598 1.0 0.0 0
M  V30 8 C 0.866 1.0 0.0 0
M  V30 9 C 0.0 2.5 0.0 0
M  V30 10 C 2.598 0.0 0.0 0
M  V30 11 C 3.4641 1.4999 0.0 0
M  V30 12 C 0.0 1.5 0.0 0
M  V30 13 C 1.732 -0.5 0.0 0
M  V30 14 C 3.4641 -0.5 0.0 0
M  V30 15 C 4.3301 1.0 0.0 0
M  V30 16 O 1.732 -1.5 0.0 0
M  V30 17 N 0.866 0.0 0.0 0
M  V30 18 C 4.3301 0.0 0.0 0
M  V30 19 C 0.0 -0.5 0.0 0
M  V30 20 C -0.866 0.0 0.0 0
M  V30 21 C 0.0 -1.5 0.0 0
M  V30 22 C -1.732 -0.4999 0.0 0
M  V30 23 C -0.866 -1.9999 0.0 0
M  V30 24 C -2.6831 -0.1909 0.0 0
M  V30 25 C -1.732 -1.4999 0.0 0
M  V30 26 C -3.2708 -0.9999 0.0 0
M  V30 27 C -3.0898 0.7225 0.0 0
M  V30 28 C -2.6831 -1.809 0.0 0
M  V30 29 C -4.2654 -0.8954 0.0 0
M  V30 30 C -4.0843 0.827 0.0 0
M  V30 31 C -4.6721 0.018 0.0 0
M  V30 END ATOM
M  V30 BEGIN BOND
M  V30 1 2 1 2
M  V30 2 1 2 3
M  V30 3 1 2 4
M  V30 4 2 4 5
M  V30 5 1 4 6
M  V30 6 1 5 7
M  V30 7 1 5 8
M  V30 8 2 6 9
M  V30 9 2 7 10
M  V30 10 1 7 11
M  V30 11 2 8 12
M  V30 12 1 10 13
M  V30 13 1 10 14
M  V30 14 2 11 15
M  V30 15 2 13 16
M  V30 16 1 13 17
M  V30 17 2 14 18
M  V30 18 1 17 19
M  V30 19 2 19 20
M  V30 20 1 19 21
M  V30 21 1 20 22
M  V30 22 2 21 23
M  V30 23 1 22 24
M  V30 24 2 22 25
M  V30 25 2 24 26
M  V30 26 1 24 27
M  V30 27 1 25 28
M  V30 28 1 26 29
M  V30 29 2 27 30
M  V30 30 2 29 31
M  V30 31 1 9 12
M  V30 32 1 15 18
M  V30 33 1 23 25
M  V30 34 1 26 28
M  V30 35 1 30 31
M  V30 END BOND
M  V30 END CTAB
M  END
>  <Molecule ChEMBL ID>
CHEMBL1173451

>  <Smiles>
O=C(O)c1ccccc1-c1ccccc1C(=O)Nc1ccc2c(c1)-c1ccccc1C2

>  <IC50_nM>
3500

>  <Assay Description>
Antagonist activity at PPARgamma (unknown origin) expressed in human LNCaP cells assessed as suppression of pioglitazone-induced PPAR response element driven firefly luciferase activity measured after 24 hrs by dual luciferase reporter assay

$$$$
CHEMBL4438749
Actelion Java MolfileCreator 2.0

  0  0  0  0  0  0              0 V3000
M  V30 BEGIN CTAB
M  V30 COUNTS 41 44 0 0 0
M  V30 BEGIN ATOM
M  V30 1 F 3.4641 4.4999 0.0 0
M  V30 2 C 2.598 4.0 0.0 0
M  V30 3 C 2.598 3.0 0.0 0
M  V30 4 C 1.732 4.5 0.0 0
M  V30 5 C 1.732 2.5 0.0 0
M  V30 6 C 3.4641 2.5 0.0 0
M  V30 7 C 0.866 4.0 0.0 0
M  V30 8 C 0.866 3.0 0.0 0
M  V30 9 O 3.4641 1.4999 0.0 0
M  V30 10 C 4.3301 1.0 0.0 0
M  V30 11 C 4.3301 0.0 0.0 0
M  V30 12 C 5.1961 1.5 0.0 0
M  V30 13 C 5.1961 -0.4999 0.0 0
M  V30 14 C 3.4641 -0.5 0.0 0
M  V30 15 C 6.0621 1.0 0.0 0
M  V30 16 C 6.0621 0.0 0.0 0
M  V30 17 C 3.4641 -1.5 0.0 0
M  V30 18 O 6.9282 -0.4999 0.0 0
M  V30 19 C 2.598 -1.9999 0.0 0
M  V30 20 C 4.3301 -2.0 0.0 0
M  V30 21 C 6.9282 -1.4999 0.0 0
M  V30 22 O 1.732 -1.4999 0.0 0
M  V30 23 O 2.598 -2.9999 0.0 0
M  V30 24 C 4.3301 -3.0 0.0 0
M  V30 25 C 7.7942 -1.9999 0.0 0
M  V30 26 C 5.1961 -3.5 0.0 0
M  V30 27 C 7.7942 -2.9999 0.0 0
M  V30 28 C 8.6602 -1.4999 0.0 0
M  V30 29 C 8.6602 -3.4999 0.0 0
M  V30 30 C 9.5262 -1.9999 0.0 0
M  V30 31 C 8.6602 -4.4999 0.0 0
M  V30 32 C 9.5262 -2.9999 0.0 0
M  V30 33 O 7.7942 -5.0 0.0 0
M  V30 34 C 9.5262 -4.9999 0.0 0
M  V30 35 N 10.3923 -3.4999 0.0 0
M  V30 36 C 7.7942 -5.9999 0.0 0
M  V30 37 C 10.3923 -4.4999 0.0 0
M  V30 38 C 11.2583 -4.9999 0.0 0
M  V30 39 F 11.7583 -4.1339 0.0 0
M  V30 40 F 12.1243 -5.4999 0.0 0
M  V30 41 F 10.7583 -5.866 0.0 0
M  V30 END ATOM
M  V30 BEGIN BOND
M  V30 1 1 1 2
M  V30 2 2 2 3
M  V30 3 1 2 4
M  V30 4 1 3 5
M  V30 5 1 3 6
M  V30 6 2 4 7
M  V30 7 2 5 8
M  V30 8 1 6 9
M  V30 9 1 9 10
M  V30 10 2 10 11
M  V30 11 1 10 12
M  V30 12 1 11 13
M  V30 13 1 11 14
M  V30 14 2 12 15
M  V30 15 2 13 16
M  V30 16 2 14 17
M  V30 17 1 16 18
M  V30 18 1 17 19
M  V30 19 1 17 20
M  V30 20 1 18 21
M  V30 21 2 19 22
M  V30 22 1 19 23
M  V30 23 1 20 24
M  V30 24 1 21 25
M  V30 25 1 24 26
M  V30 26 2 25 27
M  V30 27 1 25 28
M  V30 28 1 27 29
M  V30 29 2 28 30
M  V30 30 2 29 31
M  V30 31 1 29 32
M  V30 32 1 31 33
M  V30 33 1 31 34
M  V30 34 2 32 35
M  V30 35 1 33 36
M  V30 36 2 34 37
M  V30 37 1 37 38
M  V30 38 1 38 39
M  V30 39 1 38 40
M  V30 40 1 38 41
M  V30 41 1 7 8
M  V30 42 1 15 16
M  V30 43 1 30 32
M  V30 44 1 35 37
M  V30 END BOND
M  V30 END CTAB
M  END
>  <Molecule ChEMBL ID>
CHEMBL4438749

>  <Smiles>
CCC/C(=C\c1cc(OCc2ccc3nc(C(F)(F)F)cc(OC)c3c2)ccc1OCc1ccccc1F)C(=O)O

>  <IC50_nM>
3500

>  <Assay Description>
Antagonist actvity in pFA-GAL4-DBD fused PPARgamma LBD (unknown origin) transfected in HEK293T cells assessed as inhibition of rosiglitazone-induced PPARgamma transactivation incubated for 24 hrs by luciferase reporter gene assay

$$$$
CHEMBL459721
Actelion Java MolfileCreator 2.0

  0  0  0  0  0  0              0 V3000
M  V30 BEGIN CTAB
M  V30 COUNTS 29 31 0 0 0
M  V30 BEGIN ATOM
M  V30 1 Cl 9.5262 0.0 0.0 0
M  V30 2 C 8.6602 -0.5 0.0 0
M  V30 3 N 7.7942 0.0 0.0 0
M  V30 4 C 8.6602 -1.5 0.0 0
M  V30 5 C 6.9282 -0.5 0.0 0
M  V30 6 C 7.7942 -2.0 0.0 0
M  V30 7 S 6.0621 0.0 0.0 0
M  V30 8 N 6.9282 -1.5 0.0 0
M  V30 9 N 7.7942 -3.0 0.0 0
M  V30 10 C 5.1961 -0.5 0.0 0 CFG=2
M  V30 11 C 8.6602 -3.5 0.0 0
M  V30 12 C 5.1961 -1.5 0.0 0
M  V30 13 C 4.3301 0.0 0.0 0
M  V30 14 C 8.6602 -4.5 0.0 0
M  V30 15 C 9.5262 -3.0 0.0 0
M  V30 16 O 4.3301 -1.9999 0.0 0
M  V30 17 O 6.0621 -2.0 0.0 0
M  V30 18 C 3.4641 -0.5 0.0 0
M  V30 19 C 9.5262 -5.0 0.0 0
M  V30 20 C 10.3923 -3.5 0.0 0
M  V30 21 C 2.598 0.0 0.0 0
M  V30 22 C 10.3923 -4.5 0.0 0
M  V30 23 C 9.5262 -6.0 0.0 0
M  V30 24 C 1.732 -0.5 0.0 0
M  V30 25 N 11.2583 -5.0 0.0 0
M  V30 26 C 10.3923 -6.5 0.0 0
M  V30 27 C 0.866 0.0 0.0 0
M  V30 28 C 11.2583 -6.0 0.0 0
M  V30 29 C 0.0 -0.5 0.0 0
M  V30 END ATOM
M  V30 BEGIN BOND
M  V30 1 1 1 2
M  V30 2 2 2 3
M  V30 3 1 2 4
M  V30 4 1 3 5
M  V30 5 2 4 6
M  V30 6 1 5 7
M  V30 7 2 5 8
M  V30 8 1 6 9
M  V30 9 1 10 7 CFG=3
M  V30 10 1 9 11
M  V30 11 1 10 12
M  V30 12 1 10 13
M  V30 13 2 11 14
M  V30 14 1 11 15
M  V30 15 2 12 16
M  V30 16 1 12 17
M  V30 17 1 13 18
M  V30 18 1 14 19
M  V30 19 2 15 20
M  V30 20 1 18 21
M  V30 21 1 19 22
M  V30 22 2 19 23
M  V30 23 1 21 24
M  V30 24 2 22 25
M  V30 25 1 23 26
M  V30 26 1 24 27
M  V30 27 1 25 28
M  V30 28 1 27 29
M  V30 29 1 6 8
M  V30 30 1 20 22
M  V30 31 2 26 28
M  V30 END BOND
M  V30 BEGIN COLLECTION
M  V30 MDLV30/STERAC1 ATOMS=(1 10)
M  V30 END COLLECTION
M  V30 END CTAB
M  END
>  <Molecule ChEMBL ID>
CHEMBL459721

>  <Smiles>
CCCCCCC(Sc1nc(Cl)cc(Nc2ccc3ncccc3c2)n1)C(=O)O

>  <IC50_nM>
3500

>  <Assay Description>
Activation of human PPARgamma ligand binding domain expressed in COS7 cells by luciferase reporter gene assay

$$$$
CHEMBL379064
Actelion Java MolfileCreator 2.0

  0  0  0  0  0  0              0 V3000
M  V30 BEGIN CTAB
M  V30 COUNTS 23 25 0 0 0
M  V30 BEGIN ATOM
M  V30 1 O 5.1961 2.4999 0.0 0
M  V30 2 C 5.1961 1.4999 0.0 0
M  V30 3 C 4.3301 0.9999 0.0 0
M  V30 4 C 6.0621 1.0 0.0 0
M  V30 5 O 3.4641 1.4999 0.0 0
M  V30 6 C 4.3301 0.0 0.0 0
M  V30 7 C 6.0621 0.0 0.0 0
M  V30 8 C 6.9282 1.4999 0.0 0
M  V30 9 O 5.1961 -0.5 0.0 0
M  V30 10 C 3.4641 -0.5 0.0 0
M  V30 11 C 6.9282 -0.5 0.0 0
M  V30 12 O 6.9282 2.4999 0.0 0
M  V30 13 C 7.7942 0.9999 0.0 0
M  V30 14 C 2.598 0.0 0.0 0
M  V30 15 C 3.4641 -1.4999 0.0 0
M  V30 16 C 7.7942 0.0 0.0 0
M  V30 17 C 1.732 -0.5 0.0 0
M  V30 18 C 2.598 -2.0 0.0 0
M  V30 19 O 8.6602 -0.5 0.0 0
M  V30 20 O 0.866 0.0 0.0 0
M  V30 21 C 1.732 -1.5 0.0 0
M  V30 22 C 0.0 -0.5 0.0 0
M  V30 23 O 0.866 -1.9999 0.0 0
M  V30 END ATOM
M  V30 BEGIN BOND
M  V30 1 2 1 2
M  V30 2 1 2 3
M  V30 3 1 2 4
M  V30 4 1 3 5
M  V30 5 2 3 6
M  V30 6 2 4 7
M  V30 7 1 4 8
M  V30 8 1 6 9
M  V30 9 1 6 10
M  V30 10 1 7 11
M  V30 11 1 8 12
M  V30 12 2 8 13
M  V30 13 2 10 14
M  V30 14 1 10 15
M  V30 15 2 11 16
M  V30 16 1 14 17
M  V30 17 2 15 18
M  V30 18 1 16 19
M  V30 19 1 17 20
M  V30 20 2 17 21
M  V30 21 1 20 22
M  V30 22 1 21 23
M  V30 23 1 7 9
M  V30 24 1 13 16
M  V30 25 1 18 21
M  V30 END BOND
M  V30 END CTAB
M  END
>  <Molecule ChEMBL ID>
CHEMBL379064

>  <Smiles>
COc1cc(-c2oc3cc(O)cc(O)c3c(=O)c2O)ccc1O

>  <IC50_nM>
3500

>  <Assay Description>
Antagonist activity at PPARgamma (unknown origin)

$$$$
CHEMBL1090211
Actelion Java MolfileCreator 2.0

  0  0  0  0  0  0              0 V3000
M  V30 BEGIN CTAB
M  V30 COUNTS 37 40 0 0 0
M  V30 BEGIN ATOM
M  V30 1 Cl 3.5175 15.4123 0.0 0
M  V30 2 C 4.3991 14.1988 0.0 0
M  V30 3 C 3.789 12.8285 0.0 0
M  V30 4 C 5.8909 14.3556 0.0 0
M  V30 5 C 4.6707 11.6149 0.0 0
M  V30 6 C 6.7726 13.1421 0.0 0
M  V30 7 C 6.1625 11.7717 0.0 0
M  V30 8 C 7.0442 10.5582 0.0 0
M  V30 9 O 6.5807 9.1316 0.0 0
M  V30 10 N 8.5442 10.5582 0.0 0
M  V30 11 C 7.7942 8.25 0.0 0
M  V30 12 C 9.0077 9.1316 0.0 0
M  V30 13 C 7.7942 6.75 0.0 0
M  V30 14 C 10.4343 8.6681 0.0 0
M  V30 15 O 6.4951 6.0 0.0 0
M  V30 16 C 6.4951 4.5 0.0 0
M  V30 17 C 5.1961 3.75 0.0 0
M  V30 18 C 7.7942 3.75 0.0 0
M  V30 19 C 5.1961 2.25 0.0 0
M  V30 20 C 7.7942 2.25 0.0 0
M  V30 21 C 6.4951 1.5 0.0 0
M  V30 22 C 3.8971 1.5 0.0 0
M  V30 23 N 3.8971 0.0 0.0 0
M  V30 24 C 5.1961 -0.75 0.0 0
M  V30 25 C 2.598 -0.75 0.0 0
M  V30 26 O 5.1961 -2.25 0.0 0
M  V30 27 O 6.4951 0.0 0.0 0
M  V30 28 C 1.299 0.0 0.0 0
M  V30 29 C 7.7942 -0.75 0.0 0
M  V30 30 O 1.299 1.5 0.0 0
M  V30 31 O 0.0 -0.75 0.0 0
M  V30 32 C 7.7942 -2.25 0.0 0
M  V30 33 C 9.0932 0.0 0.0 0
M  V30 34 C 9.0932 -3.0 0.0 0
M  V30 35 C 10.3923 -0.75 0.0 0
M  V30 36 C 10.3923 -2.25 0.0 0
M  V30 37 C 11.6913 -3.0 0.0 0
M  V30 END ATOM
M  V30 BEGIN BOND
M  V30 1 1 1 2
M  V30 2 2 2 3
M  V30 3 1 2 4
M  V30 4 1 3 5
M  V30 5 2 4 6
M  V30 6 2 5 7
M  V30 7 1 7 8
M  V30 8 1 8 9
M  V30 9 2 8 10
M  V30 10 1 9 11
M  V30 11 1 10 12
M  V30 12 1 11 13
M  V30 13 1 12 14
M  V30 14 1 13 15
M  V30 15 1 15 16
M  V30 16 2 16 17
M  V30 17 1 16 18
M  V30 18 1 17 19
M  V30 19 2 18 20
M  V30 20 2 19 21
M  V30 21 1 19 22
M  V30 22 1 22 23
M  V30 23 1 23 24
M  V30 24 1 23 25
M  V30 25 2 24 26
M  V30 26 1 24 27
M  V30 27 1 25 28
M  V30 28 1 27 29
M  V30 29 2 28 30
M  V30 30 1 28 31
M  V30 31 2 29 32
M  V30 32 1 29 33
M  V30 33 1 32 34
M  V30 34 2 33 35
M  V30 35 2 34 36
M  V30 36 1 36 37
M  V30 37 1 6 7
M  V30 38 2 11 12
M  V30 39 1 20 21
M  V30 40 1 35 36
M  V30 END BOND
M  V30 END CTAB
M  END
>  <Molecule ChEMBL ID>
CHEMBL1090211

>  <Smiles>
Cc1ccc(OC(=O)N(CC(=O)O)Cc2cccc(OCc3oc(-c4ccc(Cl)cc4)nc3C)c2)cc1

>  <IC50_nM>
3546

>  <Assay Description>
Binding affinity to human His-tagged PPARgamma LBD (Q203-Y477) expressed in Escherichia coli BL21 (DE3) by fluorescence polarization assay

$$$$
CHEMBL3398451
Actelion Java MolfileCreator 2.0

  0  0  0  0  0  0              0 V3000
M  V30 BEGIN CTAB
M  V30 COUNTS 40 44 0 0 0
M  V30 BEGIN ATOM
M  V30 1 F 6.1136 -7.5772 0.0 0
M  V30 2 C 5.2 -7.9839 0.0 0
M  V30 3 F 5.6068 -8.8975 0.0 0
M  V30 4 F 4.2865 -8.3907 0.0 0
M  V30 5 C 4.7933 -7.0704 0.0 0
M  V30 6 N 5.3811 -6.2614 0.0 0
M  V30 7 C 3.7988 -6.9658 0.0 0
M  V30 8 C 4.9743 -5.3478 0.0 0
M  V30 9 C 3.392 -6.0523 0.0 0
M  V30 10 N 3.9798 -5.2433 0.0 0
M  V30 11 N 5.5621 -4.5388 0.0 0
M  V30 12 C 6.5621 -4.5388 0.0 0
M  V30 13 C 5.2531 -3.5877 0.0 0
M  V30 14 C 6.8711 -3.5877 0.0 0 CFG=1
M  V30 15 C 6.0621 -3.0 0.0 0 CFG=1
M  V30 16 C 7.8222 -3.2787 0.0 0
M  V30 17 C 6.0621 -2.0 0.0 0
M  V30 18 O 8.5653 -3.9478 0.0 0
M  V30 19 O 8.0301 -2.3006 0.0 0
M  V30 20 C 5.1961 -1.4999 0.0 0
M  V30 21 C 5.1961 -0.5 0.0 0
M  V30 22 C 4.3301 -1.9999 0.0 0
M  V30 23 C 4.3301 0.0 0.0 0
M  V30 24 C 3.4641 -1.5 0.0 0
M  V30 25 C 3.4641 -0.5 0.0 0
M  V30 26 O 2.598 0.0 0.0 0
M  V30 27 C 1.732 -0.5 0.0 0
M  V30 28 C 0.866 0.0 0.0 0
M  V30 29 C 0.0 -0.5 0.0 0
M  V30 30 N -0.9135 -0.0932 0.0 0
M  V30 31 C -0.1045 -1.4945 0.0 0
M  V30 32 C -1.5826 -0.8364 0.0 0
M  V30 33 O -1.0826 -1.7024 0.0 0
M  V30 34 C 0.6386 -2.1636 0.0 0
M  V30 35 C -2.5771 -0.7318 0.0 0
M  V30 36 C -2.9839 0.1816 0.0 0
M  V30 37 C -3.1649 -1.5408 0.0 0
M  V30 38 C -3.9784 0.2861 0.0 0
M  V30 39 C -4.1595 -1.4363 0.0 0
M  V30 40 C -4.5662 -0.5228 0.0 0
M  V30 END ATOM
M  V30 BEGIN BOND
M  V30 1 1 1 2
M  V30 2 1 2 3
M  V30 3 1 2 4
M  V30 4 1 2 5
M  V30 5 2 5 6
M  V30 6 1 5 7
M  V30 7 1 6 8
M  V30 8 2 7 9
M  V30 9 2 8 10
M  V30 10 1 8 11
M  V30 11 1 11 12
M  V30 12 1 11 13
M  V30 13 1 12 14
M  V30 14 1 13 15
M  V30 15 1 14 16 CFG=1
M  V30 16 1 15 17 CFG=3
M  V30 17 2 16 18
M  V30 18 1 16 19
M  V30 19 1 17 20
M  V30 20 2 20 21
M  V30 21 1 20 22
M  V30 22 1 21 23
M  V30 23 2 22 24
M  V30 24 2 23 25
M  V30 25 1 25 26
M  V30 26 1 26 27
M  V30 27 1 27 28
M  V30 28 1 28 29
M  V30 29 1 29 30
M  V30 30 2 29 31
M  V30 31 2 30 32
M  V30 32 1 31 33
M  V30 33 1 31 34
M  V30 34 1 32 35
M  V30 35 2 35 36
M  V30 36 1 35 37
M  V30 37 1 36 38
M  V30 38 2 37 39
M  V30 39 2 38 40
M  V30 40 1 9 10
M  V30 41 1 14 15
M  V30 42 1 24 25
M  V30 43 1 32 33
M  V30 44 1 39 40
M  V30 END BOND
M  V30 BEGIN COLLECTION
M  V30 MDLV30/STEABS ATOMS=(2 14 15)
M  V30 END COLLECTION
M  V30 END CTAB
M  END
>  <Molecule ChEMBL ID>
CHEMBL3398451

>  <Smiles>
Cc1oc(-c2ccccc2)nc1CCOc1ccc(C[C@H]2CN(c3nccc(C(F)(F)F)n3)C[C@@H]2C(=O)O)cc1

>  <IC50_nM>
3570

>  <Assay Description>
Binding affinity to PPARgamma (unknown origin) using fluorescein-tagged dual PPARalpha/gamma activator by homogeneous fluorescence polarization binding assay

$$$$
CHEMBL3594232
Actelion Java MolfileCreator 2.0

  0  0  0  0  0  0              0 V3000
M  V30 BEGIN CTAB
M  V30 COUNTS 28 31 0 0 0
M  V30 BEGIN ATOM
M  V30 1 F 6.4954 2.6728 0.0 0
M  V30 2 C 6.9954 3.5388 0.0 0
M  V30 3 F 6.1294 4.0388 0.0 0
M  V30 4 F 7.4954 4.4048 0.0 0
M  V30 5 C 7.8615 3.0388 0.0 0
M  V30 6 C 7.8615 2.0388 0.0 0
M  V30 7 C 8.7275 3.5388 0.0 0
M  V30 8 C 8.7275 1.5388 0.0 0
M  V30 9 C 6.9954 1.5388 0.0 0 CFG=1
M  V30 10 C 9.5935 3.0388 0.0 0
M  V30 11 C 9.5935 2.0388 0.0 0
M  V30 12 C 6.0819 1.9455 0.0 0
M  V30 13 C 6.8909 0.5443 0.0 0
M  V30 14 C 5.4128 1.2024 0.0 0 CFG=2
M  V30 15 C 5.9128 0.3364 0.0 0 CFG=1
M  V30 16 C 4.4346 0.9945 0.0 0
M  V30 17 C 5.2436 -0.4067 0.0 0
M  V30 18 N 4.3301 0.0 0.0 0
M  V30 19 C 3.4641 -0.5 0.0 0
M  V30 20 N 2.598 0.0 0.0 0
M  V30 21 N 3.4641 -1.4999 0.0 0
M  V30 22 C 1.732 -0.5 0.0 0
M  V30 23 C 2.598 -2.0 0.0 0
M  V30 24 C 0.866 0.0 0.0 0
M  V30 25 C 1.732 -1.5 0.0 0
M  V30 26 C 2.598 -3.0 0.0 0
M  V30 27 O 0.866 1.0 0.0 0
M  V30 28 O 0.0 -0.5 0.0 0
M  V30 END ATOM
M  V30 BEGIN BOND
M  V30 1 1 1 2
M  V30 2 1 2 3
M  V30 3 1 2 4
M  V30 4 1 2 5
M  V30 5 2 5 6
M  V30 6 1 5 7
M  V30 7 1 6 8
M  V30 8 1 9 6 CFG=3
M  V30 9 2 7 10
M  V30 10 2 8 11
M  V30 11 1 9 12
M  V30 12 1 9 13
M  V30 13 1 14 12 CFG=3
M  V30 14 1 15 13 CFG=3
M  V30 15 1 14 16
M  V30 16 1 15 17
M  V30 17 1 16 18
M  V30 18 1 18 19
M  V30 19 2 19 20
M  V30 20 1 19 21
M  V30 21 1 20 22
M  V30 22 2 21 23
M  V30 23 1 22 24
M  V30 24 2 22 25
M  V30 25 1 23 26
M  V30 26 2 24 27
M  V30 27 1 24 28
M  V30 28 1 10 11
M  V30 29 1 14 15
M  V30 30 1 17 18
M  V30 31 1 23 25
M  V30 END BOND
M  V30 BEGIN COLLECTION
M  V30 MDLV30/STEABS ATOMS=(3 9 14 15)
M  V30 END COLLECTION
M  V30 END CTAB
M  END
>  <Molecule ChEMBL ID>
CHEMBL3594232

>  <Smiles>
Cc1cc(C(=O)O)nc(N2C[C@H]3C[C@@H](c4ccccc4C(F)(F)F)C[C@H]3C2)n1

>  <IC50_nM>
3600

>  <Assay Description>
Agonist activity at PPARgamma (unknown origin) assessed as inhibition by agonist-induced corepressor NCoR release assay

$$$$
CHEMBL518038
Actelion Java MolfileCreator 2.0

  0  0  0  0  0  0              0 V3000
M  V30 BEGIN CTAB
M  V30 COUNTS 27 28 0 0 0
M  V30 BEGIN ATOM
M  V30 1 Cl 9.5262 0.0 0.0 0
M  V30 2 C 8.6602 -0.5 0.0 0
M  V30 3 N 7.7942 0.0 0.0 0
M  V30 4 C 8.6602 -1.5 0.0 0
M  V30 5 C 6.9282 -0.5 0.0 0
M  V30 6 C 7.7942 -2.0 0.0 0
M  V30 7 S 6.0621 0.0 0.0 0
M  V30 8 N 6.9282 -1.5 0.0 0
M  V30 9 N 7.7942 -3.0 0.0 0
M  V30 10 C 5.1961 -0.5 0.0 0 CFG=2
M  V30 11 C 8.6602 -3.5 0.0 0
M  V30 12 C 5.1961 -1.5 0.0 0
M  V30 13 C 4.3301 0.0 0.0 0
M  V30 14 C 8.6602 -4.5 0.0 0
M  V30 15 C 9.5262 -3.0 0.0 0
M  V30 16 O 4.3301 -1.9999 0.0 0
M  V30 17 O 6.0621 -2.0 0.0 0
M  V30 18 C 3.4641 -0.5 0.0 0
M  V30 19 C 9.5262 -5.0 0.0 0
M  V30 20 C 7.7942 -4.9999 0.0 0
M  V30 21 C 10.3923 -3.5 0.0 0
M  V30 22 C 2.598 0.0 0.0 0
M  V30 23 C 10.3923 -4.5 0.0 0
M  V30 24 C 9.5262 -6.0 0.0 0
M  V30 25 C 1.732 -0.5 0.0 0
M  V30 26 C 0.866 0.0 0.0 0
M  V30 27 C 0.0 -0.5 0.0 0
M  V30 END ATOM
M  V30 BEGIN BOND
M  V30 1 1 1 2
M  V30 2 2 2 3
M  V30 3 1 2 4
M  V30 4 1 3 5
M  V30 5 2 4 6
M  V30 6 1 5 7
M  V30 7 2 5 8
M  V30 8 1 6 9
M  V30 9 1 10 7 CFG=3
M  V30 10 1 9 11
M  V30 11 1 10 12
M  V30 12 1 10 13
M  V30 13 2 11 14
M  V30 14 1 11 15
M  V30 15 2 12 16
M  V30 16 1 12 17
M  V30 17 1 13 18
M  V30 18 1 14 19
M  V30 19 1 14 20
M  V30 20 2 15 21
M  V30 21 1 18 22
M  V30 22 2 19 23
M  V30 23 1 19 24
M  V30 24 1 22 25
M  V30 25 1 25 26
M  V30 26 1 26 27
M  V30 27 1 6 8
M  V30 28 1 21 23
M  V30 END BOND
M  V30 BEGIN COLLECTION
M  V30 MDLV30/STERAC1 ATOMS=(1 10)
M  V30 END COLLECTION
M  V30 END CTAB
M  END
>  <Molecule ChEMBL ID>
CHEMBL518038

>  <Smiles>
CCCCCCC(Sc1nc(Cl)cc(Nc2cccc(C)c2C)n1)C(=O)O

>  <IC50_nM>
3600

>  <Assay Description>
Activation of human PPARgamma ligand binding domain expressed in COS7 cells by luciferase reporter gene assay

$$$$
CHEMBL202739
Actelion Java MolfileCreator 2.0

  0  0  0  0  0  0              0 V3000
M  V30 BEGIN CTAB
M  V30 COUNTS 34 36 0 0 0
M  V30 BEGIN ATOM
M  V30 1 Cl 9.0932 1.5 0.0 0
M  V30 2 C 9.0932 0.0 0.0 0
M  V30 3 C 7.7942 -0.75 0.0 0
M  V30 4 C 10.3923 -0.75 0.0 0
M  V30 5 O 6.4951 0.0 0.0 0
M  V30 6 C 7.7942 -2.25 0.0 0
M  V30 7 C 10.3923 -2.25 0.0 0
M  V30 8 C 5.1961 -0.75 0.0 0
M  V30 9 C 9.0932 -3.0 0.0 0
M  V30 10 C 11.6913 -3.0 0.0 0
M  V30 11 C 3.8971 0.0 0.0 0
M  V30 12 C 11.6913 -4.5 0.0 0
M  V30 13 C 12.9903 -2.25 0.0 0
M  V30 14 C 2.598 -0.75 0.0 0
M  V30 15 C 12.9903 -5.25 0.0 0
M  V30 16 C 14.2894 -3.0 0.0 0
M  V30 17 O 1.299 0.0 0.0 0
M  V30 18 C 14.2894 -4.5 0.0 0
M  V30 19 C 0.0 -0.75 0.0 0
M  V30 20 C 15.0394 -5.799 0.0 0
M  V30 21 C 15.7894 -4.4999 0.0 0
M  V30 22 C -1.299 0.0 0.0 0
M  V30 23 C 0.0 -2.25 0.0 0
M  V30 24 C -2.598 -0.75 0.0 0
M  V30 25 C -1.299 -3.0 0.0 0
M  V30 26 C -2.598 -2.25 0.0 0
M  V30 27 C -3.8971 -3.0 0.0 0
M  V30 28 C -3.8971 -4.5 0.0 0 CFG=1
M  V30 29 C -2.598 -5.25 0.0 0
M  V30 30 C -5.1961 -5.25 0.0 0
M  V30 31 C -2.598 -3.75 0.0 0
M  V30 32 O -1.299 -4.5 0.0 0
M  V30 33 O -2.598 -6.75 0.0 0
M  V30 34 C -5.1961 -6.75 0.0 0
M  V30 END ATOM
M  V30 BEGIN BOND
M  V30 1 1 1 2
M  V30 2 2 2 3
M  V30 3 1 2 4
M  V30 4 1 3 5
M  V30 5 1 3 6
M  V30 6 2 4 7
M  V30 7 1 5 8
M  V30 8 2 6 9
M  V30 9 1 7 10
M  V30 10 1 8 11
M  V30 11 1 10 12
M  V30 12 1 10 13
M  V30 13 1 11 14
M  V30 14 1 12 15
M  V30 15 1 13 16
M  V30 16 1 14 17
M  V30 17 1 15 18
M  V30 18 1 17 19
M  V30 19 1 18 20
M  V30 20 1 18 21
M  V30 21 2 19 22
M  V30 22 1 19 23
M  V30 23 1 22 24
M  V30 24 2 23 25
M  V30 25 2 24 26
M  V30 26 1 26 27
M  V30 27 1 27 28
M  V30 28 1 28 29
M  V30 29 1 28 30
M  V30 30 1 28 31 CFG=3
M  V30 31 2 29 32
M  V30 32 1 29 33
M  V30 33 1 30 34
M  V30 34 1 7 9
M  V30 35 1 16 18
M  V30 36 1 25 26
M  V30 END BOND
M  V30 BEGIN COLLECTION
M  V30 MDLV30/STEABS ATOMS=(1 28)
M  V30 END COLLECTION
M  V30 END CTAB
M  END
>  <Molecule ChEMBL ID>
CHEMBL202739

>  <Smiles>
CC[C@@](C)(Cc1ccc(OCCCOc2ccc(C3CCC(C)(C)CC3)cc2Cl)cc1)C(=O)O

>  <IC50_nM>
3610

>  <Assay Description>
Binding affinity to human PPAR gamma

$$$$
CHEMBL202739
Actelion Java MolfileCreator 2.0

  0  0  0  0  0  0              0 V3000
M  V30 BEGIN CTAB
M  V30 COUNTS 34 36 0 0 0
M  V30 BEGIN ATOM
M  V30 1 Cl 9.0932 1.5 0.0 0
M  V30 2 C 9.0932 0.0 0.0 0
M  V30 3 C 7.7942 -0.75 0.0 0
M  V30 4 C 10.3923 -0.75 0.0 0
M  V30 5 O 6.4951 0.0 0.0 0
M  V30 6 C 7.7942 -2.25 0.0 0
M  V30 7 C 10.3923 -2.25 0.0 0
M  V30 8 C 5.1961 -0.75 0.0 0
M  V30 9 C 9.0932 -3.0 0.0 0
M  V30 10 C 11.6913 -3.0 0.0 0
M  V30 11 C 3.8971 0.0 0.0 0
M  V30 12 C 11.6913 -4.5 0.0 0
M  V30 13 C 12.9903 -2.25 0.0 0
M  V30 14 C 2.598 -0.75 0.0 0
M  V30 15 C 12.9903 -5.25 0.0 0
M  V30 16 C 14.2894 -3.0 0.0 0
M  V30 17 O 1.299 0.0 0.0 0
M  V30 18 C 14.2894 -4.5 0.0 0
M  V30 19 C 0.0 -0.75 0.0 0
M  V30 20 C 15.0394 -5.799 0.0 0
M  V30 21 C 15.7894 -4.4999 0.0 0
M  V30 22 C -1.299 0.0 0.0 0
M  V30 23 C 0.0 -2.25 0.0 0
M  V30 24 C -2.598 -0.75 0.0 0
M  V30 25 C -1.299 -3.0 0.0 0
M  V30 26 C -2.598 -2.25 0.0 0
M  V30 27 C -3.8971 -3.0 0.0 0
M  V30 28 C -3.8971 -4.5 0.0 0 CFG=1
M  V30 29 C -2.598 -5.25 0.0 0
M  V30 30 C -5.1961 -5.25 0.0 0
M  V30 31 C -2.598 -3.75 0.0 0
M  V30 32 O -1.299 -4.5 0.0 0
M  V30 33 O -2.598 -6.75 0.0 0
M  V30 34 C -5.1961 -6.75 0.0 0
M  V30 END ATOM
M  V30 BEGIN BOND
M  V30 1 1 1 2
M  V30 2 2 2 3
M  V30 3 1 2 4
M  V30 4 1 3 5
M  V30 5 1 3 6
M  V30 6 2 4 7
M  V30 7 1 5 8
M  V30 8 2 6 9
M  V30 9 1 7 10
M  V30 10 1 8 11
M  V30 11 1 10 12
M  V30 12 1 10 13
M  V30 13 1 11 14
M  V30 14 1 12 15
M  V30 15 1 13 16
M  V30 16 1 14 17
M  V30 17 1 15 18
M  V30 18 1 17 19
M  V30 19 1 18 20
M  V30 20 1 18 21
M  V30 21 2 19 22
M  V30 22 1 19 23
M  V30 23 1 22 24
M  V30 24 2 23 25
M  V30 25 2 24 26
M  V30 26 1 26 27
M  V30 27 1 27 28
M  V30 28 1 28 29
M  V30 29 1 28 30
M  V30 30 1 28 31 CFG=3
M  V30 31 2 29 32
M  V30 32 1 29 33
M  V30 33 1 30 34
M  V30 34 1 7 9
M  V30 35 1 16 18
M  V30 36 1 25 26
M  V30 END BOND
M  V30 BEGIN COLLECTION
M  V30 MDLV30/STEABS ATOMS=(1 28)
M  V30 END COLLECTION
M  V30 END CTAB
M  END
>  <Molecule ChEMBL ID>
CHEMBL202739

>  <Smiles>
CC[C@@](C)(Cc1ccc(OCCCOc2ccc(C3CCC(C)(C)CC3)cc2Cl)cc1)C(=O)O

>  <IC50_nM>
3610

>  <Assay Description>
Displacement of radio-labeled full agonist from PPARgamma receptor

$$$$
CHEMBL3398441
Actelion Java MolfileCreator 2.0

  0  0  0  0  0  0              0 V3000
M  V30 BEGIN CTAB
M  V30 COUNTS 39 43 0 0 0
M  V30 BEGIN ATOM
M  V30 1 O 7.8298 -3.4249 0.0 0
M  V30 2 C 8.4176 -2.6159 0.0 0
M  V30 3 O 9.4121 -2.7205 0.0 0
M  V30 4 N 8.0108 -1.7024 0.0 0
M  V30 5 C 9.9999 -1.9114 0.0 0
M  V30 6 C 8.5108 -0.8364 0.0 0
M  V30 7 C 7.0327 -1.4945 0.0 0
M  V30 8 C 10.9944 -2.016 0.0 0
M  V30 9 C 9.5931 -0.9979 0.0 0
M  V30 10 C 7.8417 -0.0932 0.0 0 CFG=1
M  V30 11 C 6.9282 -0.5 0.0 0 CFG=1
M  V30 12 C 11.5822 -1.207 0.0 0
M  V30 13 C 10.1809 -0.1889 0.0 0
M  V30 14 C 8.0496 0.8848 0.0 0
M  V30 15 C 6.0621 0.0 0.0 0
M  V30 16 C 11.1754 -0.2934 0.0 0
M  V30 17 O 9.0007 1.1939 0.0 0
M  V30 18 O 7.3065 1.554 0.0 0
M  V30 19 C 5.1961 -0.5 0.0 0
M  V30 20 C 4.3301 0.0 0.0 0
M  V30 21 C 5.1961 -1.4999 0.0 0
M  V30 22 C 3.4641 -0.5 0.0 0
M  V30 23 C 4.3301 -1.9999 0.0 0
M  V30 24 O 2.598 0.0 0.0 0
M  V30 25 C 3.4641 -1.4999 0.0 0
M  V30 26 C 1.732 -0.5 0.0 0
M  V30 27 C 0.866 0.0 0.0 0
M  V30 28 C 0.0 -0.5 0.0 0
M  V30 29 N -0.9135 -0.0932 0.0 0
M  V30 30 C -0.1045 -1.4945 0.0 0
M  V30 31 C -1.5826 -0.8364 0.0 0
M  V30 32 O -1.0826 -1.7024 0.0 0
M  V30 33 C 0.6386 -2.1636 0.0 0
M  V30 34 C -2.5771 -0.7318 0.0 0
M  V30 35 C -2.9839 0.1816 0.0 0
M  V30 36 C -3.1649 -1.5408 0.0 0
M  V30 37 C -3.9784 0.2861 0.0 0
M  V30 38 C -4.1595 -1.4363 0.0 0
M  V30 39 C -4.5662 -0.5228 0.0 0
M  V30 END ATOM
M  V30 BEGIN BOND
M  V30 1 2 1 2
M  V30 2 1 2 3
M  V30 3 1 2 4
M  V30 4 1 3 5
M  V30 5 1 4 6
M  V30 6 1 4 7
M  V30 7 2 5 8
M  V30 8 1 5 9
M  V30 9 1 6 10
M  V30 10 1 7 11
M  V30 11 1 8 12
M  V30 12 2 9 13
M  V30 13 1 10 14 CFG=1
M  V30 14 1 11 15 CFG=3
M  V30 15 2 12 16
M  V30 16 2 14 17
M  V30 17 1 14 18
M  V30 18 1 15 19
M  V30 19 2 19 20
M  V30 20 1 19 21
M  V30 21 1 20 22
M  V30 22 2 21 23
M  V30 23 1 22 24
M  V30 24 2 22 25
M  V30 25 1 24 26
M  V30 26 1 26 27
M  V30 27 1 27 28
M  V30 28 1 28 29
M  V30 29 2 28 30
M  V30 30 2 29 31
M  V30 31 1 30 32
M  V30 32 1 30 33
M  V30 33 1 31 34
M  V30 34 2 34 35
M  V30 35 1 34 36
M  V30 36 1 35 37
M  V30 37 2 36 38
M  V30 38 2 37 39
M  V30 39 1 10 11
M  V30 40 1 13 16
M  V30 41 1 23 25
M  V30 42 1 31 32
M  V30 43 1 38 39
M  V30 END BOND
M  V30 BEGIN COLLECTION
M  V30 MDLV30/STEABS ATOMS=(2 10 11)
M  V30 END COLLECTION
M  V30 END CTAB
M  END
>  <Molecule ChEMBL ID>
CHEMBL3398441

>  <Smiles>
Cc1oc(-c2ccccc2)nc1CCOc1cccc(C[C@H]2CN(C(=O)Oc3ccccc3)C[C@@H]2C(=O)O)c1

>  <IC50_nM>
3630

>  <Assay Description>
Binding affinity to PPARgamma (unknown origin) using fluorescein-tagged dual PPARalpha/gamma activator by homogeneous fluorescence polarization binding assay

$$$$
CHEMBL1946955
Actelion Java MolfileCreator 2.0

  0  0  0  0  0  0              0 V3000
M  V30 BEGIN CTAB
M  V30 COUNTS 39 43 0 0 0
M  V30 BEGIN ATOM
M  V30 1 F 8.4868 2.3257 0.0 0
M  V30 2 C 9.4379 2.0167 0.0 0
M  V30 3 F 9.7469 2.9678 0.0 0
M  V30 4 F 10.3889 1.7077 0.0 0
M  V30 5 C 9.1289 1.0657 0.0 0
M  V30 6 C 8.1507 0.8577 0.0 0
M  V30 7 C 9.798 0.3225 0.0 0
M  V30 8 C 7.8417 -0.0932 0.0 0
M  V30 9 C 9.489 -0.6284 0.0 0
M  V30 10 N 6.9282 -0.5 0.0 0
M  V30 11 C 8.5108 -0.8364 0.0 0
M  V30 12 C 7.0327 -1.4945 0.0 0
M  V30 13 C 6.0621 0.0 0.0 0
M  V30 14 N 8.0108 -1.7024 0.0 0
M  V30 15 O 6.2895 -2.1636 0.0 0
M  V30 16 C 5.1961 -0.5 0.0 0
M  V30 17 C 8.4176 -2.6159 0.0 0
M  V30 18 C 4.3301 0.0 0.0 0
M  V30 19 C 5.1961 -1.4999 0.0 0
M  V30 20 N 7.9176 -3.482 0.0 0
M  V30 21 C 9.3957 -2.8238 0.0 0
M  V30 22 C 3.4641 -0.5 0.0 0
M  V30 23 C 4.3301 -1.9999 0.0 0
M  V30 24 O 8.5867 -4.2251 0.0 0
M  V30 25 C 9.5002 -3.8184 0.0 0
M  V30 26 C 10.2047 -2.2361 0.0 0
M  V30 27 O 2.598 0.0 0.0 0
M  V30 28 C 3.4641 -1.4999 0.0 0
M  V30 29 C 10.4138 -4.2251 0.0 0
M  V30 30 C 11.1183 -2.6428 0.0 0
M  V30 31 C 1.732 -0.5 0.0 0 CFG=1
M  V30 32 C 11.2228 -3.6373 0.0 0
M  V30 33 C 1.732 -1.5 0.0 0
M  V30 34 C 0.866 0.0 0.0 0
M  V30 35 O 12.1363 -4.0441 0.0 0
M  V30 36 O 0.866 -2.0 0.0 0
M  V30 37 O 2.598 -1.9999 0.0 0
M  V30 38 C 0.0 -0.5 0.0 0
M  V30 39 C 12.9454 -3.4563 0.0 0
M  V30 END ATOM
M  V30 BEGIN BOND
M  V30 1 1 1 2
M  V30 2 1 2 3
M  V30 3 1 2 4
M  V30 4 1 2 5
M  V30 5 2 5 6
M  V30 6 1 5 7
M  V30 7 1 6 8
M  V30 8 2 7 9
M  V30 9 1 8 10
M  V30 10 2 8 11
M  V30 11 1 10 12
M  V30 12 1 10 13
M  V30 13 1 11 14
M  V30 14 2 12 15
M  V30 15 1 13 16
M  V30 16 1 14 17
M  V30 17 2 16 18
M  V30 18 1 16 19
M  V30 19 2 17 20
M  V30 20 1 17 21
M  V30 21 1 18 22
M  V30 22 2 19 23
M  V30 23 1 20 24
M  V30 24 2 21 25
M  V30 25 1 21 26
M  V30 26 1 22 27
M  V30 27 2 22 28
M  V30 28 1 25 29
M  V30 29 2 26 30
M  V30 30 1 31 27 CFG=1
M  V30 31 2 29 32
M  V30 32 1 31 33
M  V30 33 1 31 34
M  V30 34 1 32 35
M  V30 35 2 33 36
M  V30 36 1 33 37
M  V30 37 1 34 38
M  V30 38 1 35 39
M  V30 39 1 9 11
M  V30 40 1 12 14
M  V30 41 1 23 28
M  V30 42 1 24 25
M  V30 43 1 30 32
M  V30 END BOND
M  V30 BEGIN COLLECTION
M  V30 MDLV30/STEABS ATOMS=(1 31)
M  V30 END COLLECTION
M  V30 END CTAB
M  END
>  <Molecule ChEMBL ID>
CHEMBL1946955

>  <Smiles>
CC[C@@H](Oc1cccc(Cn2c(=O)n(-c3noc4cc(OC)ccc34)c3ccc(C(F)(F)F)cc32)c1)C(=O)O

>  <IC50_nM>
3657

>  <Assay Description>
Binding affinity to human PPARgamma by scintillation proximity assay

$$$$
CHEMBL176222
Actelion Java MolfileCreator 2.0

  0  0  0  0  0  0              0 V3000
M  V30 BEGIN CTAB
M  V30 COUNTS 35 39 0 0 0
M  V30 BEGIN ATOM
M  V30 1 Cl 6.0621 1.0 0.0 0
M  V30 2 C 6.0621 0.0 0.0 0
M  V30 3 C 5.1961 -0.5 0.0 0
M  V30 4 C 6.9282 -0.4999 0.0 0
M  V30 5 O 4.3301 0.0 0.0 0
M  V30 6 C 5.1961 -1.4999 0.0 0
M  V30 7 C 6.9282 -1.4999 0.0 0
M  V30 8 C 3.4641 -0.5 0.0 0
M  V30 9 C 6.0621 -1.9999 0.0 0
M  V30 10 C 7.7942 -1.9999 0.0 0
M  V30 11 C 2.598 0.0 0.0 0
M  V30 12 C 7.7942 -2.9999 0.0 0
M  V30 13 C 8.6602 -1.4999 0.0 0
M  V30 14 C 1.732 -0.5 0.0 0
M  V30 15 C 8.6602 -3.4999 0.0 0
M  V30 16 C 9.5262 -1.9999 0.0 0
M  V30 17 O 0.866 0.0 0.0 0
M  V30 18 C 9.5262 -2.9999 0.0 0
M  V30 19 C 0.0 -0.5 0.0 0
M  V30 20 C 10.0262 -3.866 0.0 0
M  V30 21 C 10.5262 -2.9999 0.0 0
M  V30 22 C -0.866 0.0 0.0 0
M  V30 23 C 0.0 -1.4999 0.0 0
M  V30 24 C -1.732 -0.4999 0.0 0
M  V30 25 C -0.866 -1.9999 0.0 0
M  V30 26 O -2.598 0.0 0.0 0
M  V30 27 C -1.732 -1.4999 0.0 0
M  V30 28 C -3.4641 -0.4999 0.0 0 CFG=1
M  V30 29 C -2.598 -1.9999 0.0 0
M  V30 30 C -3.4641 0.5 0.0 0
M  V30 31 C -3.4641 -1.4999 0.0 0
M  V30 32 C -4.3301 0.0 0.0 0
M  V30 33 O -4.3301 1.0 0.0 0
M  V30 34 O -2.598 1.0 0.0 0
M  V30 35 C -5.1961 -0.4999 0.0 0
M  V30 END ATOM
M  V30 BEGIN BOND
M  V30 1 1 1 2
M  V30 2 2 2 3
M  V30 3 1 2 4
M  V30 4 1 3 5
M  V30 5 1 3 6
M  V30 6 2 4 7
M  V30 7 1 5 8
M  V30 8 2 6 9
M  V30 9 1 7 10
M  V30 10 1 8 11
M  V30 11 1 10 12
M  V30 12 1 10 13
M  V30 13 1 11 14
M  V30 14 1 12 15
M  V30 15 1 13 16
M  V30 16 1 14 17
M  V30 17 1 15 18
M  V30 18 1 17 19
M  V30 19 1 18 20
M  V30 20 1 18 21
M  V30 21 2 19 22
M  V30 22 1 19 23
M  V30 23 1 22 24
M  V30 24 2 23 25
M  V30 25 1 24 26
M  V30 26 2 24 27
M  V30 27 1 26 28
M  V30 28 1 27 29
M  V30 29 1 28 30 CFG=3
M  V30 30 1 28 31
M  V30 31 1 28 32
M  V30 32 2 30 33
M  V30 33 1 30 34
M  V30 34 1 32 35
M  V30 35 1 7 9
M  V30 36 1 16 18
M  V30 37 1 20 21
M  V30 38 1 25 27
M  V30 39 1 29 31
M  V30 END BOND
M  V30 BEGIN COLLECTION
M  V30 MDLV30/STEABS ATOMS=(1 28)
M  V30 END COLLECTION
M  V30 END CTAB
M  END
>  <Molecule ChEMBL ID>
CHEMBL176222

>  <Smiles>
CC[C@]1(C(=O)O)CCc2ccc(OCCCOc3ccc(C4CCC5(CC4)CC5)cc3Cl)cc2O1

>  <IC50_nM>
3700

>  <Assay Description>
In vitro binding affinity against human PPARgamma

$$$$
CHEMBL518507
Actelion Java MolfileCreator 2.0

  0  0  0  0  0  0              0 V3000
M  V30 BEGIN CTAB
M  V30 COUNTS 29 31 0 0 0
M  V30 BEGIN ATOM
M  V30 1 S 2.598 0.0 0.0 0
M  V30 2 C 3.4641 -0.5 0.0 0
M  V30 3 C 1.732 -0.5 0.0 0
M  V30 4 N 3.4641 -1.5 0.0 0
M  V30 5 N 4.3301 0.0 0.0 0
M  V30 6 C 0.866 0.0 0.0 0
M  V30 7 C 4.3301 -2.0 0.0 0
M  V30 8 C 5.1961 -0.5 0.0 0
M  V30 9 O 0.866 1.0 0.0 0
M  V30 10 O 0.0 -0.5 0.0 0
M  V30 11 O 4.3301 -3.0 0.0 0
M  V30 12 C 5.1961 -1.5 0.0 0
M  V30 13 O 6.0621 0.0 0.0 0
M  V30 14 C 5.1961 -3.5 0.0 0
M  V30 15 C 6.0621 0.9999 0.0 0
M  V30 16 C 5.1961 -4.5 0.0 0
M  V30 17 C 6.9282 1.4999 0.0 0
M  V30 18 C 6.0621 -5.0 0.0 0
M  V30 19 C 6.9282 2.4999 0.0 0
M  V30 20 C 6.0621 -6.0 0.0 0
M  V30 21 C 6.9282 -4.5 0.0 0
M  V30 22 C 7.7942 2.9999 0.0 0
M  V30 23 C 6.0621 2.9999 0.0 0
M  V30 24 C 6.9282 -6.5 0.0 0
M  V30 25 C 7.7942 -5.0 0.0 0
M  V30 26 C 7.7942 3.9999 0.0 0
M  V30 27 C 6.0621 3.9999 0.0 0
M  V30 28 C 7.7942 -6.0 0.0 0
M  V30 29 C 6.9282 4.4999 0.0 0
M  V30 END ATOM
M  V30 BEGIN BOND
M  V30 1 1 1 2
M  V30 2 1 1 3
M  V30 3 2 2 4
M  V30 4 1 2 5
M  V30 5 1 3 6
M  V30 6 1 4 7
M  V30 7 2 5 8
M  V30 8 2 6 9
M  V30 9 1 6 10
M  V30 10 1 7 11
M  V30 11 2 7 12
M  V30 12 1 8 13
M  V30 13 1 11 14
M  V30 14 1 13 15
M  V30 15 1 14 16
M  V30 16 1 15 17
M  V30 17 1 16 18
M  V30 18 1 17 19
M  V30 19 2 18 20
M  V30 20 1 18 21
M  V30 21 2 19 22
M  V30 22 1 19 23
M  V30 23 1 20 24
M  V30 24 2 21 25
M  V30 25 1 22 26
M  V30 26 2 23 27
M  V30 27 2 24 28
M  V30 28 2 26 29
M  V30 29 1 8 12
M  V30 30 1 25 28
M  V30 31 1 27 29
M  V30 END BOND
M  V30 END CTAB
M  END
>  <Molecule ChEMBL ID>
CHEMBL518507

>  <Smiles>
O=C(O)CSc1nc(OCCc2ccccc2)cc(OCCc2ccccc2)n1

>  <IC50_nM>
3700

>  <Assay Description>
Activation of human PPARgamma ligand binding domain expressed in COS7 cells by luciferase reporter gene assay

$$$$
CHEMBL234589
Actelion Java MolfileCreator 2.0

  0  0  0  0  0  0              0 V3000
M  V30 BEGIN CTAB
M  V30 COUNTS 33 36 0 0 0
M  V30 BEGIN ATOM
M  V30 1 S 4.1807 0.3364 0.0 0
M  V30 2 C 3.6807 1.2024 0.0 0
M  V30 3 C 3.5116 -0.4067 0.0 0
M  V30 4 C 2.7026 0.9945 0.0 0
M  V30 5 C 3.9897 2.1534 0.0 0
M  V30 6 C 2.598 0.0 0.0 0
M  V30 7 C 2.0334 1.7376 0.0 0
M  V30 8 C 3.3206 2.8966 0.0 0
M  V30 9 C 1.732 -0.5 0.0 0
M  V30 10 C 2.3424 2.6887 0.0 0
M  V30 11 O 3.6296 3.8476 0.0 0
M  V30 12 C 0.866 0.0 0.0 0
M  V30 13 C 4.6078 4.0556 0.0 0
M  V30 14 O 0.866 1.0 0.0 0
M  V30 15 O 0.0 -0.5 0.0 0
M  V30 16 C 4.9168 5.0066 0.0 0
M  V30 17 C 5.8949 5.2145 0.0 0
M  V30 18 C 4.2476 5.7498 0.0 0
M  V30 19 C 6.2039 6.1656 0.0 0
M  V30 20 C 4.5567 6.7008 0.0 0
M  V30 21 C 5.5348 6.9087 0.0 0
M  V30 22 C 5.8438 7.8598 0.0 0
M  V30 23 O 6.822 8.0677 0.0 0
M  V30 24 C 7.131 9.0187 0.0 0
M  V30 25 C 8.1091 9.2267 0.0 0
M  V30 26 C 6.4619 9.7619 0.0 0
M  V30 27 C 8.4182 10.1777 0.0 0
M  V30 28 C 6.7709 10.7129 0.0 0
M  V30 29 C 7.749 10.9209 0.0 0
M  V30 30 C 8.058 11.8719 0.0 0
M  V30 31 F 7.107 12.1809 0.0 0
M  V30 32 F 8.3671 12.823 0.0 0
M  V30 33 F 9.0091 11.5629 0.0 0
M  V30 END ATOM
M  V30 BEGIN BOND
M  V30 1 1 1 2
M  V30 2 1 1 3
M  V30 3 2 2 4
M  V30 4 1 2 5
M  V30 5 2 3 6
M  V30 6 1 4 7
M  V30 7 2 5 8
M  V30 8 1 6 9
M  V30 9 2 7 10
M  V30 10 1 8 11
M  V30 11 1 9 12
M  V30 12 1 11 13
M  V30 13 2 12 14
M  V30 14 1 12 15
M  V30 15 1 13 16
M  V30 16 2 16 17
M  V30 17 1 16 18
M  V30 18 1 17 19
M  V30 19 2 18 20
M  V30 20 2 19 21
M  V30 21 1 21 22
M  V30 22 1 22 23
M  V30 23 1 23 24
M  V30 24 2 24 25
M  V30 25 1 24 26
M  V30 26 1 25 27
M  V30 27 2 26 28
M  V30 28 2 27 29
M  V30 29 1 29 30
M  V30 30 1 30 31
M  V30 31 1 30 32
M  V30 32 1 30 33
M  V30 33 1 4 6
M  V30 34 1 8 10
M  V30 35 1 20 21
M  V30 36 1 28 29
M  V30 END BOND
M  V30 END CTAB
M  END
>  <Molecule ChEMBL ID>
CHEMBL234589

>  <Smiles>
O=C(O)Cc1csc2cc(OCc3ccc(COc4ccc(C(F)(F)F)cc4)cc3)ccc12

>  <IC50_nM>
3730

>  <Assay Description>
Displacement of [3H]5-(4-(3-(5-methyl-2-phenyloxazol-4-yl)propanoyl)benzyl)thiazolidine-2,4-dione from human PPARgamma after 2 hrs by SPA

$$$$
CHEMBL234589
Actelion Java MolfileCreator 2.0

  0  0  0  0  0  0              0 V3000
M  V30 BEGIN CTAB
M  V30 COUNTS 33 36 0 0 0
M  V30 BEGIN ATOM
M  V30 1 S 4.1807 0.3364 0.0 0
M  V30 2 C 3.6807 1.2024 0.0 0
M  V30 3 C 3.5116 -0.4067 0.0 0
M  V30 4 C 2.7026 0.9945 0.0 0
M  V30 5 C 3.9897 2.1534 0.0 0
M  V30 6 C 2.598 0.0 0.0 0
M  V30 7 C 2.0334 1.7376 0.0 0
M  V30 8 C 3.3206 2.8966 0.0 0
M  V30 9 C 1.732 -0.5 0.0 0
M  V30 10 C 2.3424 2.6887 0.0 0
M  V30 11 O 3.6296 3.8476 0.0 0
M  V30 12 C 0.866 0.0 0.0 0
M  V30 13 C 4.6078 4.0556 0.0 0
M  V30 14 O 0.866 1.0 0.0 0
M  V30 15 O 0.0 -0.5 0.0 0
M  V30 16 C 4.9168 5.0066 0.0 0
M  V30 17 C 5.8949 5.2145 0.0 0
M  V30 18 C 4.2476 5.7498 0.0 0
M  V30 19 C 6.2039 6.1656 0.0 0
M  V30 20 C 4.5567 6.7008 0.0 0
M  V30 21 C 5.5348 6.9087 0.0 0
M  V30 22 C 5.8438 7.8598 0.0 0
M  V30 23 O 6.822 8.0677 0.0 0
M  V30 24 C 7.131 9.0187 0.0 0
M  V30 25 C 8.1091 9.2267 0.0 0
M  V30 26 C 6.4619 9.7619 0.0 0
M  V30 27 C 8.4182 10.1777 0.0 0
M  V30 28 C 6.7709 10.7129 0.0 0
M  V30 29 C 7.749 10.9209 0.0 0
M  V30 30 C 8.058 11.8719 0.0 0
M  V30 31 F 7.107 12.1809 0.0 0
M  V30 32 F 8.3671 12.823 0.0 0
M  V30 33 F 9.0091 11.5629 0.0 0
M  V30 END ATOM
M  V30 BEGIN BOND
M  V30 1 1 1 2
M  V30 2 1 1 3
M  V30 3 2 2 4
M  V30 4 1 2 5
M  V30 5 2 3 6
M  V30 6 1 4 7
M  V30 7 2 5 8
M  V30 8 1 6 9
M  V30 9 2 7 10
M  V30 10 1 8 11
M  V30 11 1 9 12
M  V30 12 1 11 13
M  V30 13 2 12 14
M  V30 14 1 12 15
M  V30 15 1 13 16
M  V30 16 2 16 17
M  V30 17 1 16 18
M  V30 18 1 17 19
M  V30 19 2 18 20
M  V30 20 2 19 21
M  V30 21 1 21 22
M  V30 22 1 22 23
M  V30 23 1 23 24
M  V30 24 2 24 25
M  V30 25 1 24 26
M  V30 26 1 25 27
M  V30 27 2 26 28
M  V30 28 2 27 29
M  V30 29 1 29 30
M  V30 30 1 30 31
M  V30 31 1 30 32
M  V30 32 1 30 33
M  V30 33 1 4 6
M  V30 34 1 8 10
M  V30 35 1 20 21
M  V30 36 1 28 29
M  V30 END BOND
M  V30 END CTAB
M  END
>  <Molecule ChEMBL ID>
CHEMBL234589

>  <Smiles>
O=C(O)Cc1csc2cc(OCc3ccc(COc4ccc(C(F)(F)F)cc4)cc3)ccc12

>  <IC50_nM>
3732.5

>  <Assay Description>
Agonist activity at PPARgamma

$$$$
CHEMBL367891
Actelion Java MolfileCreator 2.0

  0  0  0  0  0  0              0 V3000
M  V30 BEGIN CTAB
M  V30 COUNTS 31 34 0 0 0
M  V30 BEGIN ATOM
M  V30 1 Cl 6.0621 1.0 0.0 0
M  V30 2 C 6.0621 0.0 0.0 0
M  V30 3 C 5.1961 -0.5 0.0 0
M  V30 4 C 6.9282 -0.4999 0.0 0
M  V30 5 O 4.3301 0.0 0.0 0
M  V30 6 C 5.1961 -1.4999 0.0 0
M  V30 7 C 6.9282 -1.4999 0.0 0
M  V30 8 C 3.4641 -0.5 0.0 0
M  V30 9 C 6.0621 -1.9999 0.0 0
M  V30 10 C 7.7942 -1.9999 0.0 0
M  V30 11 C 2.598 0.0 0.0 0
M  V30 12 C 7.8987 -2.9945 0.0 0
M  V30 13 C 8.7077 -1.5932 0.0 0
M  V30 14 C 1.732 -0.5 0.0 0
M  V30 15 C 8.8769 -3.2024 0.0 0
M  V30 16 C 9.3769 -2.3364 0.0 0
M  V30 17 O 0.866 0.0 0.0 0
M  V30 18 C 0.0 -0.5 0.0 0
M  V30 19 C -0.866 0.0 0.0 0
M  V30 20 C 0.0 -1.4999 0.0 0
M  V30 21 C -1.732 -0.4999 0.0 0
M  V30 22 C -0.866 -1.9999 0.0 0
M  V30 23 O -2.598 0.0 0.0 0
M  V30 24 C -1.732 -1.4999 0.0 0
M  V30 25 C -3.4641 -0.4999 0.0 0 CFG=1
M  V30 26 C -2.598 -1.9999 0.0 0
M  V30 27 C -4.3301 0.0 0.0 0
M  V30 28 C -3.4641 -1.4999 0.0 0
M  V30 29 C -4.3301 -0.9999 0.0 0
M  V30 30 O -5.1961 -0.4999 0.0 0
M  V30 31 O -4.3301 1.0 0.0 0
M  V30 END ATOM
M  V30 BEGIN BOND
M  V30 1 1 1 2
M  V30 2 2 2 3
M  V30 3 1 2 4
M  V30 4 1 3 5
M  V30 5 1 3 6
M  V30 6 2 4 7
M  V30 7 1 5 8
M  V30 8 2 6 9
M  V30 9 1 7 10
M  V30 10 1 8 11
M  V30 11 1 10 12
M  V30 12 1 10 13
M  V30 13 1 11 14
M  V30 14 1 12 15
M  V30 15 1 13 16
M  V30 16 1 14 17
M  V30 17 1 17 18
M  V30 18 2 18 19
M  V30 19 1 18 20
M  V30 20 1 19 21
M  V30 21 2 20 22
M  V30 22 1 21 23
M  V30 23 2 21 24
M  V30 24 1 23 25
M  V30 25 1 24 26
M  V30 26 1 25 27
M  V30 27 1 25 28
M  V30 28 1 25 29 CFG=1
M  V30 29 2 27 30
M  V30 30 1 27 31
M  V30 31 1 7 9
M  V30 32 1 15 16
M  V30 33 1 22 24
M  V30 34 1 26 28
M  V30 END BOND
M  V30 BEGIN COLLECTION
M  V30 MDLV30/STEABS ATOMS=(1 25)
M  V30 END COLLECTION
M  V30 END CTAB
M  END
>  <Molecule ChEMBL ID>
CHEMBL367891

>  <Smiles>
C[C@]1(C(=O)O)CCc2ccc(OCCCOc3ccc(C4CCCC4)cc3Cl)cc2O1

>  <IC50_nM>
3800

>  <Assay Description>
In vitro binding affinity against human PPARgamma

$$$$
CHEMBL427530
Actelion Java MolfileCreator 2.0

  0  0  0  0  0  0              0 V3000
M  V30 BEGIN CTAB
M  V30 COUNTS 28 30 0 0 0
M  V30 BEGIN ATOM
M  V30 1 O 9.739 -4.1634 0.0 0
M  V30 2 C 9.2729 -2.7288 0.0 0
M  V30 3 N 10.1595 -1.5084 0.0 0
M  V30 4 C 7.8382 -2.2627 0.0 0
M  V30 5 O 9.2729 -0.288 0.0 0
M  V30 6 C 11.668 -1.5084 0.0 0
M  V30 7 C 7.8382 -0.7542 0.0 0
M  V30 8 C 6.5318 -3.0169 0.0 0
M  V30 9 C 6.5318 0.0 0.0 0
M  V30 10 C 5.2255 -2.2627 0.0 0
M  V30 11 C 5.2255 -0.7542 0.0 0
M  V30 12 C 6.5318 1.5084 0.0 0
M  V30 13 C 3.9598 -3.3073 0.0 0
M  V30 14 O 3.9191 0.0 0.0 0
M  V30 15 C 7.8382 2.2627 0.0 0
M  V30 16 C 3.9191 -4.5254 0.0 0
M  V30 17 C 2.6127 -0.7542 0.0 0 CFG=1
M  V30 18 C 9.1446 1.5084 0.0 0
M  V30 19 C 2.6127 -5.2796 0.0 0
M  V30 20 C 1.3063 0.0 0.0 0
M  V30 21 C 2.6127 -2.2627 0.0 0
M  V30 22 C 0.0 -0.7542 0.0 0
M  V30 23 C 1.3063 1.5084 0.0 0
M  V30 24 O 3.8957 -2.8507 0.0 0
M  V30 25 O 1.3063 -3.0169 0.0 0
M  V30 26 C -1.3063 0.0 0.0 0
M  V30 27 C 0.0 2.2627 0.0 0
M  V30 28 C -1.3063 1.5084 0.0 0
M  V30 END ATOM
M  V30 BEGIN BOND
M  V30 1 2 1 2
M  V30 2 1 2 3
M  V30 3 1 2 4
M  V30 4 1 3 5
M  V30 5 1 3 6
M  V30 6 2 4 7
M  V30 7 1 4 8
M  V30 8 1 7 9
M  V30 9 2 8 10
M  V30 10 2 9 11
M  V30 11 1 9 12
M  V30 12 1 10 13
M  V30 13 1 11 14
M  V30 14 1 12 15
M  V30 15 1 13 16
M  V30 16 1 17 14 CFG=3
M  V30 17 1 15 18
M  V30 18 1 16 19
M  V30 19 1 17 20
M  V30 20 1 17 21
M  V30 21 2 20 22
M  V30 22 1 20 23
M  V30 23 2 21 24
M  V30 24 1 21 25
M  V30 25 1 22 26
M  V30 26 2 23 27
M  V30 27 2 26 28
M  V30 28 1 5 7
M  V30 29 1 10 11
M  V30 30 1 27 28
M  V30 END BOND
M  V30 BEGIN COLLECTION
M  V30 MDLV30/STEABS ATOMS=(1 17)
M  V30 END COLLECTION
M  V30 END CTAB
M  END
>  <Molecule ChEMBL ID>
CHEMBL427530

>  <Smiles>
CCCc1cc2c(=O)n(C)oc2c(CCC)c1O[C@H](C(=O)O)c1ccccc1

>  <IC50_nM>
3800

>  <Assay Description>
In vitro binding affinity for human PPAR gamma

$$$$
CHEMBL367891
Actelion Java MolfileCreator 2.0

  0  0  0  0  0  0              0 V3000
M  V30 BEGIN CTAB
M  V30 COUNTS 31 34 0 0 0
M  V30 BEGIN ATOM
M  V30 1 Cl 6.0621 1.0 0.0 0
M  V30 2 C 6.0621 0.0 0.0 0
M  V30 3 C 5.1961 -0.5 0.0 0
M  V30 4 C 6.9282 -0.4999 0.0 0
M  V30 5 O 4.3301 0.0 0.0 0
M  V30 6 C 5.1961 -1.4999 0.0 0
M  V30 7 C 6.9282 -1.4999 0.0 0
M  V30 8 C 3.4641 -0.5 0.0 0
M  V30 9 C 6.0621 -1.9999 0.0 0
M  V30 10 C 7.7942 -1.9999 0.0 0
M  V30 11 C 2.598 0.0 0.0 0
M  V30 12 C 7.8987 -2.9945 0.0 0
M  V30 13 C 8.7077 -1.5932 0.0 0
M  V30 14 C 1.732 -0.5 0.0 0
M  V30 15 C 8.8769 -3.2024 0.0 0
M  V30 16 C 9.3769 -2.3364 0.0 0
M  V30 17 O 0.866 0.0 0.0 0
M  V30 18 C 0.0 -0.5 0.0 0
M  V30 19 C -0.866 0.0 0.0 0
M  V30 20 C 0.0 -1.4999 0.0 0
M  V30 21 C -1.732 -0.4999 0.0 0
M  V30 22 C -0.866 -1.9999 0.0 0
M  V30 23 O -2.598 0.0 0.0 0
M  V30 24 C -1.732 -1.4999 0.0 0
M  V30 25 C -3.4641 -0.4999 0.0 0 CFG=1
M  V30 26 C -2.598 -1.9999 0.0 0
M  V30 27 C -4.3301 0.0 0.0 0
M  V30 28 C -3.4641 -1.4999 0.0 0
M  V30 29 C -4.3301 -0.9999 0.0 0
M  V30 30 O -5.1961 -0.4999 0.0 0
M  V30 31 O -4.3301 1.0 0.0 0
M  V30 END ATOM
M  V30 BEGIN BOND
M  V30 1 1 1 2
M  V30 2 2 2 3
M  V30 3 1 2 4
M  V30 4 1 3 5
M  V30 5 1 3 6
M  V30 6 2 4 7
M  V30 7 1 5 8
M  V30 8 2 6 9
M  V30 9 1 7 10
M  V30 10 1 8 11
M  V30 11 1 10 12
M  V30 12 1 10 13
M  V30 13 1 11 14
M  V30 14 1 12 15
M  V30 15 1 13 16
M  V30 16 1 14 17
M  V30 17 1 17 18
M  V30 18 2 18 19
M  V30 19 1 18 20
M  V30 20 1 19 21
M  V30 21 2 20 22
M  V30 22 1 21 23
M  V30 23 2 21 24
M  V30 24 1 23 25
M  V30 25 1 24 26
M  V30 26 1 25 27
M  V30 27 1 25 28
M  V30 28 1 25 29 CFG=1
M  V30 29 2 27 30
M  V30 30 1 27 31
M  V30 31 1 7 9
M  V30 32 1 15 16
M  V30 33 1 22 24
M  V30 34 1 26 28
M  V30 END BOND
M  V30 BEGIN COLLECTION
M  V30 MDLV30/STEABS ATOMS=(1 25)
M  V30 END COLLECTION
M  V30 END CTAB
M  END
>  <Molecule ChEMBL ID>
CHEMBL367891

>  <Smiles>
C[C@]1(C(=O)O)CCc2ccc(OCCCOc3ccc(C4CCCC4)cc3Cl)cc2O1

>  <IC50_nM>
3801.89

>  <Assay Description>
Agonist activity at PPARgamma

$$$$
CHEMBL474158
Actelion Java MolfileCreator 2.0

  0  0  0  0  0  0              0 V3000
M  V30 BEGIN CTAB
M  V30 COUNTS 31 34 0 0 0
M  V30 BEGIN ATOM
M  V30 1 O 8.5653 -3.9478 0.0 0
M  V30 2 C 7.8222 -3.2787 0.0 0
M  V30 3 O 8.0301 -2.3006 0.0 0
M  V30 4 C 6.8711 -3.5877 0.0 0
M  V30 5 C 6.0621 -3.0 0.0 0
M  V30 6 C 6.5621 -4.5388 0.0 0
M  V30 7 C 5.2531 -3.5877 0.0 0
M  V30 8 C 6.0621 -2.0 0.0 0
M  V30 9 N 5.5621 -4.5388 0.0 0
M  V30 10 C 5.1961 -1.4999 0.0 0
M  V30 11 C 4.9743 -5.3478 0.0 0
M  V30 12 C 5.1961 -0.5 0.0 0
M  V30 13 C 4.3301 -1.9999 0.0 0
M  V30 14 C 4.3301 0.0 0.0 0
M  V30 15 C 3.4641 -1.5 0.0 0
M  V30 16 C 3.4641 -0.5 0.0 0
M  V30 17 O 2.598 0.0 0.0 0
M  V30 18 C 1.732 -0.5 0.0 0
M  V30 19 C 0.866 0.0 0.0 0
M  V30 20 C 0.0 -0.5 0.0 0
M  V30 21 N -0.9135 -0.0932 0.0 0
M  V30 22 C -0.1045 -1.4945 0.0 0
M  V30 23 C -1.5826 -0.8364 0.0 0
M  V30 24 O -1.0826 -1.7024 0.0 0
M  V30 25 C 0.6386 -2.1636 0.0 0
M  V30 26 C -2.5771 -0.7318 0.0 0
M  V30 27 C -2.9839 0.1816 0.0 0
M  V30 28 C -3.1649 -1.5408 0.0 0
M  V30 29 C -3.9784 0.2861 0.0 0
M  V30 30 C -4.1595 -1.4363 0.0 0
M  V30 31 C -4.5662 -0.5228 0.0 0
M  V30 END ATOM
M  V30 BEGIN BOND
M  V30 1 2 1 2
M  V30 2 1 2 3
M  V30 3 1 2 4
M  V30 4 1 4 5
M  V30 5 2 4 6
M  V30 6 2 5 7
M  V30 7 1 5 8
M  V30 8 1 6 9
M  V30 9 1 8 10
M  V30 10 1 9 11
M  V30 11 2 10 12
M  V30 12 1 10 13
M  V30 13 1 12 14
M  V30 14 2 13 15
M  V30 15 2 14 16
M  V30 16 1 16 17
M  V30 17 1 17 18
M  V30 18 1 18 19
M  V30 19 1 19 20
M  V30 20 1 20 21
M  V30 21 2 20 22
M  V30 22 2 21 23
M  V30 23 1 22 24
M  V30 24 1 22 25
M  V30 25 1 23 26
M  V30 26 2 26 27
M  V30 27 1 26 28
M  V30 28 1 27 29
M  V30 29 2 28 30
M  V30 30 2 29 31
M  V30 31 1 7 9
M  V30 32 1 15 16
M  V30 33 1 23 24
M  V30 34 1 30 31
M  V30 END BOND
M  V30 END CTAB
M  END
>  <Molecule ChEMBL ID>
CHEMBL474158

>  <Smiles>
Cc1oc(-c2ccccc2)nc1CCOc1ccc(Cc2cn(C)cc2C(=O)O)cc1

>  <IC50_nM>
3820

>  <Assay Description>
Binding affinity to PPARgamma by fluorescence polarization assay

$$$$
CHEMBL4450797
Actelion Java MolfileCreator 2.0

  0  0  0  0  0  0              0 V3000
M  V30 BEGIN CTAB
M  V30 COUNTS 41 44 0 0 0
M  V30 BEGIN ATOM
M  V30 1 F 1.732 5.5 0.0 0
M  V30 2 C 1.732 4.5 0.0 0
M  V30 3 C 2.598 4.0 0.0 0
M  V30 4 C 0.866 4.0 0.0 0
M  V30 5 C 2.598 3.0 0.0 0
M  V30 6 C 0.866 3.0 0.0 0
M  V30 7 C 1.732 2.5 0.0 0
M  V30 8 C 3.4641 2.5 0.0 0
M  V30 9 O 3.4641 1.4999 0.0 0
M  V30 10 C 4.3301 1.0 0.0 0
M  V30 11 C 4.3301 0.0 0.0 0
M  V30 12 C 5.1961 1.5 0.0 0
M  V30 13 C 5.1961 -0.4999 0.0 0
M  V30 14 C 3.4641 -0.5 0.0 0
M  V30 15 C 6.0621 1.0 0.0 0
M  V30 16 C 6.0621 0.0 0.0 0
M  V30 17 C 3.4641 -1.5 0.0 0
M  V30 18 O 6.9282 -0.4999 0.0 0
M  V30 19 C 2.598 -1.9999 0.0 0
M  V30 20 C 4.3301 -2.0 0.0 0
M  V30 21 C 6.9282 -1.4999 0.0 0
M  V30 22 O 1.732 -1.4999 0.0 0
M  V30 23 O 2.598 -2.9999 0.0 0
M  V30 24 C 4.3301 -3.0 0.0 0
M  V30 25 C 7.7942 -1.9999 0.0 0
M  V30 26 C 5.1961 -3.5 0.0 0
M  V30 27 C 7.7942 -2.9999 0.0 0
M  V30 28 C 8.6602 -1.4999 0.0 0
M  V30 29 C 8.6602 -3.4999 0.0 0
M  V30 30 C 9.5262 -1.9999 0.0 0
M  V30 31 C 8.6602 -4.4999 0.0 0
M  V30 32 C 9.5262 -2.9999 0.0 0
M  V30 33 O 7.7942 -5.0 0.0 0
M  V30 34 C 9.5262 -4.9999 0.0 0
M  V30 35 N 10.3923 -3.4999 0.0 0
M  V30 36 C 7.7942 -5.9999 0.0 0
M  V30 37 C 10.3923 -4.4999 0.0 0
M  V30 38 C 11.2583 -4.9999 0.0 0
M  V30 39 F 11.7583 -4.1339 0.0 0
M  V30 40 F 12.1243 -5.4999 0.0 0
M  V30 41 F 10.7583 -5.866 0.0 0
M  V30 END ATOM
M  V30 BEGIN BOND
M  V30 1 1 1 2
M  V30 2 2 2 3
M  V30 3 1 2 4
M  V30 4 1 3 5
M  V30 5 2 4 6
M  V30 6 2 5 7
M  V30 7 1 5 8
M  V30 8 1 8 9
M  V30 9 1 9 10
M  V30 10 2 10 11
M  V30 11 1 10 12
M  V30 12 1 11 13
M  V30 13 1 11 14
M  V30 14 2 12 15
M  V30 15 2 13 16
M  V30 16 2 14 17
M  V30 17 1 16 18
M  V30 18 1 17 19
M  V30 19 1 17 20
M  V30 20 1 18 21
M  V30 21 2 19 22
M  V30 22 1 19 23
M  V30 23 1 20 24
M  V30 24 1 21 25
M  V30 25 1 24 26
M  V30 26 2 25 27
M  V30 27 1 25 28
M  V30 28 1 27 29
M  V30 29 2 28 30
M  V30 30 2 29 31
M  V30 31 1 29 32
M  V30 32 1 31 33
M  V30 33 1 31 34
M  V30 34 2 32 35
M  V30 35 1 33 36
M  V30 36 2 34 37
M  V30 37 1 37 38
M  V30 38 1 38 39
M  V30 39 1 38 40
M  V30 40 1 38 41
M  V30 41 1 6 7
M  V30 42 1 15 16
M  V30 43 1 30 32
M  V30 44 1 35 37
M  V30 END BOND
M  V30 END CTAB
M  END
>  <Molecule ChEMBL ID>
CHEMBL4450797

>  <Smiles>
CCC/C(=C\c1cc(OCc2ccc3nc(C(F)(F)F)cc(OC)c3c2)ccc1OCc1cccc(F)c1)C(=O)O

>  <IC50_nM>
3900

>  <Assay Description>
Antagonist actvity in pFA-GAL4-DBD fused PPARgamma LBD (unknown origin) transfected in HEK293T cells assessed as inhibition of rosiglitazone-induced PPARgamma transactivation incubated for 24 hrs by luciferase reporter gene assay

$$$$
CHEMBL4469210
Actelion Java MolfileCreator 2.0

  0  0  0  0  0  0              0 V3000
M  V30 BEGIN CTAB
M  V30 COUNTS 35 38 0 0 0
M  V30 BEGIN ATOM
M  V30 1 F 6.4282 2.366 0.0 0
M  V30 2 C 6.9282 1.5 0.0 0
M  V30 3 F 7.7942 2.0 0.0 0
M  V30 4 F 7.4282 0.6339 0.0 0
M  V30 5 C 6.0621 1.0 0.0 0
M  V30 6 N 5.1961 1.5 0.0 0
M  V30 7 C 6.0621 0.0 0.0 0
M  V30 8 C 4.3301 1.0 0.0 0
M  V30 9 C 5.1961 -0.4999 0.0 0
M  V30 10 C 4.3301 0.0 0.0 0
M  V30 11 C 3.4641 1.5 0.0 0
M  V30 12 O 5.1961 -1.4999 0.0 0
M  V30 13 C 3.4641 -0.4999 0.0 0
M  V30 14 C 2.598 1.0 0.0 0
M  V30 15 C 6.0621 -1.9999 0.0 0
M  V30 16 C 2.598 0.0 0.0 0
M  V30 17 C 1.732 -0.5 0.0 0
M  V30 18 O 0.866 0.0 0.0 0
M  V30 19 C 0.0 -0.5 0.0 0
M  V30 20 C -0.866 0.0 0.0 0
M  V30 21 C 0.0 -1.5 0.0 0
M  V30 22 N -1.0739 0.9781 0.0 0
M  V30 23 C -1.732 -0.4999 0.0 0
M  V30 24 C -0.866 -2.0 0.0 0
M  V30 25 C -2.0684 1.0826 0.0 0
M  V30 26 C -0.4048 1.7212 0.0 0
M  V30 27 C -1.732 -1.5 0.0 0
M  V30 28 C -2.4751 0.1691 0.0 0
M  V30 29 C -2.5684 1.9487 0.0 0
M  V30 30 C 0.5733 1.5133 0.0 0
M  V30 31 O -2.598 -2.0 0.0 0
M  V30 32 O -2.0684 2.8147 0.0 0
M  V30 33 O -3.5684 1.9487 0.0 0
M  V30 34 C 1.2424 2.2565 0.0 0
M  V30 35 C -2.598 -3.0 0.0 0
M  V30 END ATOM
M  V30 BEGIN BOND
M  V30 1 1 1 2
M  V30 2 1 2 3
M  V30 3 1 2 4
M  V30 4 1 2 5
M  V30 5 2 5 6
M  V30 6 1 5 7
M  V30 7 1 6 8
M  V30 8 2 7 9
M  V30 9 1 8 10
M  V30 10 2 8 11
M  V30 11 1 9 12
M  V30 12 2 10 13
M  V30 13 1 11 14
M  V30 14 1 12 15
M  V30 15 1 13 16
M  V30 16 1 16 17
M  V30 17 1 17 18
M  V30 18 1 18 19
M  V30 19 2 19 20
M  V30 20 1 19 21
M  V30 21 1 20 22
M  V30 22 1 20 23
M  V30 23 2 21 24
M  V30 24 1 22 25
M  V30 25 1 22 26
M  V30 26 2 23 27
M  V30 27 1 23 28
M  V30 28 1 25 29
M  V30 29 1 26 30
M  V30 30 1 27 31
M  V30 31 2 29 32
M  V30 32 1 29 33
M  V30 33 1 30 34
M  V30 34 1 31 35
M  V30 35 1 9 10
M  V30 36 2 14 16
M  V30 37 1 24 27
M  V30 38 2 25 28
M  V30 END BOND
M  V30 END CTAB
M  END
>  <Molecule ChEMBL ID>
CHEMBL4469210

>  <Smiles>
CCCn1c(C(=O)O)cc2c(OC)ccc(OCc3ccc4nc(C(F)(F)F)cc(OC)c4c3)c21

>  <IC50_nM>
3900

>  <Assay Description>
Antagonist actvity in pFA-GAL4-DBD fused PPARgamma LBD (unknown origin) transfected in HEK293T cells assessed as inhibition of rosiglitazone-induced PPARgamma transactivation incubated for 24 hrs by luciferase reporter gene assay

$$$$
CHEMBL199225
Actelion Java MolfileCreator 2.0

  0  0  0  0  0  0              0 V3000
M  V30 BEGIN CTAB
M  V30 COUNTS 20 21 0 0 0
M  V30 BEGIN ATOM
M  V30 1 Cl 6.0621 -1.9999 0.0 0
M  V30 2 C 5.1961 -1.4999 0.0 0
M  V30 3 C 5.1961 -0.5 0.0 0
M  V30 4 C 4.3301 -1.9999 0.0 0
M  V30 5 C 4.3301 0.0 0.0 0
M  V30 6 C 3.4641 -1.5 0.0 0
M  V30 7 C 3.4641 -0.5 0.0 0
M  V30 8 O 2.598 0.0 0.0 0
M  V30 9 C 1.732 -0.5 0.0 0 CFG=2
M  V30 10 C 1.732 -1.5 0.0 0
M  V30 11 C 0.866 0.0 0.0 0
M  V30 12 C 2.598 -0.9999 0.0 0
M  V30 13 O 2.598 -2.0 0.0 0
M  V30 14 O 0.866 -1.9999 0.0 0
M  V30 15 C 0.0 -0.5 0.0 0
M  V30 16 C -0.866 0.0 0.0 0
M  V30 17 C 0.0 -1.4999 0.0 0
M  V30 18 C -1.732 -0.4999 0.0 0
M  V30 19 C -0.866 -1.9999 0.0 0
M  V30 20 C -1.732 -1.4999 0.0 0
M  V30 END ATOM
M  V30 BEGIN BOND
M  V30 1 1 1 2
M  V30 2 2 2 3
M  V30 3 1 2 4
M  V30 4 1 3 5
M  V30 5 2 4 6
M  V30 6 2 5 7
M  V30 7 1 7 8
M  V30 8 1 8 9
M  V30 9 1 9 10
M  V30 10 1 9 11
M  V30 11 1 9 12 CFG=1
M  V30 12 2 10 13
M  V30 13 1 10 14
M  V30 14 1 11 15
M  V30 15 2 15 16
M  V30 16 1 15 17
M  V30 17 1 16 18
M  V30 18 2 17 19
M  V30 19 2 18 20
M  V30 20 1 6 7
M  V30 21 1 19 20
M  V30 END BOND
M  V30 BEGIN COLLECTION
M  V30 MDLV30/STERAC1 ATOMS=(1 9)
M  V30 END COLLECTION
M  V30 END CTAB
M  END
>  <Molecule ChEMBL ID>
CHEMBL199225

>  <Smiles>
CC(Cc1ccccc1)(Oc1ccc(Cl)cc1)C(=O)O

>  <IC50_nM>
3900

>  <Assay Description>
Binding affinity towards peroxisome proliferator activated receptor gamma

$$$$
CHEMBL198579
Actelion Java MolfileCreator 2.0

  0  0  0  0  0  0              0 V3000
M  V30 BEGIN CTAB
M  V30 COUNTS 36 40 0 0 0
M  V30 BEGIN ATOM
M  V30 1 O 6.8835 -5.4154 0.0 0
M  V30 2 C 6.2143 -4.6723 0.0 0
M  V30 3 O 5.2362 -4.8802 0.0 0
M  V30 4 C 6.5233 -3.7212 0.0 0
M  V30 5 N 5.8542 -2.9781 0.0 0
M  V30 6 C 6.0621 -2.0 0.0 0
M  V30 7 C 4.8597 -3.0826 0.0 0
M  V30 8 C 5.1961 -1.5 0.0 0
M  V30 9 C 6.9282 -1.5 0.0 0
M  V30 10 C 4.453 -2.1691 0.0 0
M  V30 11 C 5.1961 -0.5 0.0 0
M  V30 12 C 6.9282 -0.5 0.0 0
M  V30 13 O 4.3301 0.0 0.0 0
M  V30 14 C 6.0621 0.0 0.0 0
M  V30 15 C 3.4641 -0.5 0.0 0
M  V30 16 C 2.598 0.0 0.0 0
M  V30 17 C 1.732 -0.5 0.0 0
M  V30 18 O 0.866 0.0 0.0 0
M  V30 19 C 0.0 -0.5 0.0 0
M  V30 20 C -0.866 0.0 0.0 0
M  V30 21 C 0.0 -1.5 0.0 0
M  V30 22 C -1.732 -0.4999 0.0 0
M  V30 23 C -0.866 1.0 0.0 0
M  V30 24 C -0.866 -1.9999 0.0 0
M  V30 25 O -2.6831 -0.1909 0.0 0
M  V30 26 C -1.732 -1.4999 0.0 0
M  V30 27 C 0.0 1.5 0.0 0
M  V30 28 C -3.2708 -0.9999 0.0 0
M  V30 29 C -2.6831 -1.809 0.0 0
M  V30 30 C 0.0 2.5 0.0 0
M  V30 31 C -2.9921 -2.76 0.0 0
M  V30 32 C -3.9702 -2.9679 0.0 0
M  V30 33 C -2.3229 -3.5032 0.0 0
M  V30 34 C -4.2792 -3.919 0.0 0
M  V30 35 C -2.632 -4.4542 0.0 0
M  V30 36 C -3.6101 -4.6621 0.0 0
M  V30 END ATOM
M  V30 BEGIN BOND
M  V30 1 2 1 2
M  V30 2 1 2 3
M  V30 3 1 2 4
M  V30 4 1 4 5
M  V30 5 1 5 6
M  V30 6 1 5 7
M  V30 7 2 6 8
M  V30 8 1 6 9
M  V30 9 2 7 10
M  V30 10 1 8 11
M  V30 11 2 9 12
M  V30 12 1 11 13
M  V30 13 2 11 14
M  V30 14 1 13 15
M  V30 15 1 15 16
M  V30 16 1 16 17
M  V30 17 1 17 18
M  V30 18 1 18 19
M  V30 19 2 19 20
M  V30 20 1 19 21
M  V30 21 1 20 22
M  V30 22 1 20 23
M  V30 23 2 21 24
M  V30 24 1 22 25
M  V30 25 2 22 26
M  V30 26 1 23 27
M  V30 27 1 25 28
M  V30 28 1 26 29
M  V30 29 1 27 30
M  V30 30 1 29 31
M  V30 31 2 31 32
M  V30 32 1 31 33
M  V30 33 1 32 34
M  V30 34 2 33 35
M  V30 35 2 34 36
M  V30 36 1 8 10
M  V30 37 1 12 14
M  V30 38 1 24 26
M  V30 39 2 28 29
M  V30 40 1 35 36
M  V30 END BOND
M  V30 END CTAB
M  END
>  <Molecule ChEMBL ID>
CHEMBL198579

>  <Smiles>
CCCc1c(OCCCOc2cccc3c2ccn3CC(=O)O)ccc2c(-c3ccccc3)coc12

>  <IC50_nM>
3968

>  <Assay Description>
Displacement of [3H]rosiglitazone from human PPAR gamma by SPA assay

$$$$
CHEMBL485088
Actelion Java MolfileCreator 2.0

  0  0  0  0  0  0              0 V3000
M  V30 BEGIN CTAB
M  V30 COUNTS 32 35 0 0 0
M  V30 BEGIN ATOM
M  V30 1 Cl 7.7942 2.25 0.0 0
M  V30 2 C 6.4951 1.5 0.0 0
M  V30 3 C 6.4951 0.0 0.0 0
M  V30 4 C 5.1961 2.25 0.0 0
M  V30 5 C 5.1961 -0.75 0.0 0
M  V30 6 C 3.8971 1.5 0.0 0
M  V30 7 C 3.8971 0.0 0.0 0
M  V30 8 C 5.1961 -2.25 0.0 0
M  V30 9 N 2.598 -0.75 0.0 0
M  V30 10 O 6.4951 -3.0 0.0 0
M  V30 11 O 3.8971 -3.0 0.0 0
M  V30 12 C 1.299 0.0 0.0 0
M  V30 13 O 1.299 1.5 0.0 0
M  V30 14 C 0.0 -0.75 0.0 0
M  V30 15 C -1.299 0.0 0.0 0
M  V30 16 C 0.0 -2.25 0.0 0
M  V30 17 C -2.598 -0.75 0.0 0
M  V30 18 C -1.299 -3.0 0.0 0
M  V30 19 S -3.8971 0.0 0.0 0
M  V30 20 C -2.598 -2.25 0.0 0
M  V30 21 O -3.1471 1.299 0.0 0
M  V30 22 O -4.6471 1.299 0.0 0
M  V30 23 N -5.1961 -0.75 0.0 0
M  V30 24 C -6.4951 0.0 0.0 0
M  V30 25 C -5.1961 -2.25 0.0 0
M  V30 26 C -7.7942 -0.75 0.0 0
M  V30 27 C -6.4951 -3.0 0.0 0
M  V30 28 C -7.7942 -2.25 0.0 0
M  V30 29 C -9.0932 0.0 0.0 0
M  V30 30 C -9.0932 -3.0 0.0 0
M  V30 31 C -10.3923 -0.75 0.0 0
M  V30 32 C -10.3923 -2.25 0.0 0
M  V30 END ATOM
M  V30 BEGIN BOND
M  V30 1 1 1 2
M  V30 2 2 2 3
M  V30 3 1 2 4
M  V30 4 1 3 5
M  V30 5 2 4 6
M  V30 6 2 5 7
M  V30 7 1 5 8
M  V30 8 1 7 9
M  V30 9 2 8 10
M  V30 10 1 8 11
M  V30 11 1 9 12
M  V30 12 2 12 13
M  V30 13 1 12 14
M  V30 14 2 14 15
M  V30 15 1 14 16
M  V30 16 1 15 17
M  V30 17 2 16 18
M  V30 18 1 17 19
M  V30 19 2 17 20
M  V30 20 2 19 21
M  V30 21 2 19 22
M  V30 22 1 19 23
M  V30 23 1 23 24
M  V30 24 1 23 25
M  V30 25 1 24 26
M  V30 26 1 25 27
M  V30 27 2 26 28
M  V30 28 1 26 29
M  V30 29 1 28 30
M  V30 30 2 29 31
M  V30 31 2 30 32
M  V30 32 1 6 7
M  V30 33 1 18 20
M  V30 34 1 27 28
M  V30 35 1 31 32
M  V30 END BOND
M  V30 END CTAB
M  END
>  <Molecule ChEMBL ID>
CHEMBL485088

>  <Smiles>
O=C(Nc1ccc(Cl)cc1C(=O)O)c1cccc(S(=O)(=O)N2CCc3ccccc3C2)c1

>  <IC50_nM>
3981

>  <Assay Description>
Agonist activity at PPARgamma

$$$$
CHEMBL1760404
Actelion Java MolfileCreator 2.0

  0  0  0  0  0  0              0 V3000
M  V30 BEGIN CTAB
M  V30 COUNTS 38 40 0 0 0
M  V30 BEGIN ATOM
M  V30 1 Cl -1.299 -7.5 0.0 0
M  V30 2 C 0.0 -6.75 0.0 0
M  V30 3 C 0.0 -5.25 0.0 0
M  V30 4 C 1.299 -7.5 0.0 0
M  V30 5 C 1.299 -4.5 0.0 0
M  V30 6 C 2.598 -6.75 0.0 0
M  V30 7 C 2.598 -5.25 0.0 0
M  V30 8 C 3.8971 -4.5 0.0 0
M  V30 9 C 3.8971 -3.0 0.0 0
M  V30 10 C 5.1961 -5.25 0.0 0
M  V30 11 C 5.1961 -2.25 0.0 0
M  V30 12 C 2.598 -2.25 0.0 0
M  V30 13 C 6.4951 -4.5 0.0 0
M  V30 14 N 5.1961 -0.75 0.0 0
M  V30 15 C 6.4951 -3.0 0.0 0
M  V30 16 S 6.4951 0.0 0.0 0
M  V30 17 C 3.8971 0.0 0.0 0
M  V30 18 O 7.2451 1.299 0.0 0
M  V30 19 O 5.7451 1.299 0.0 0
M  V30 20 C 7.7942 -0.75 0.0 0
M  V30 21 C 2.598 -0.75 0.0 0
M  V30 22 C 9.0932 0.0 0.0 0
M  V30 23 C 7.7942 -2.25 0.0 0
M  V30 24 C 1.299 0.0 0.0 0
M  V30 25 O 9.0932 1.5 0.0 0
M  V30 26 C 10.3923 -0.75 0.0 0
M  V30 27 C 9.0932 -3.0 0.0 0
M  V30 28 C 0.0 -0.75 0.0 0
M  V30 29 C 10.3923 2.25 0.0 0
M  V30 30 O 11.6913 0.0 0.0 0
M  V30 31 C 10.3923 -2.25 0.0 0
M  V30 32 C 12.9903 -0.75 0.0 0
M  V30 33 O 11.6913 -3.0 0.0 0
M  V30 34 C 11.6913 -4.5 0.0 0 CFG=2
M  V30 35 C 12.9903 -5.25 0.0 0
M  V30 36 C 10.3923 -5.25 0.0 0
M  V30 37 O 14.2894 -4.5 0.0 0
M  V30 38 O 12.9903 -6.75 0.0 0
M  V30 END ATOM
M  V30 BEGIN BOND
M  V30 1 1 1 2
M  V30 2 2 2 3
M  V30 3 1 2 4
M  V30 4 1 3 5
M  V30 5 2 4 6
M  V30 6 2 5 7
M  V30 7 1 7 8
M  V30 8 2 8 9
M  V30 9 1 8 10
M  V30 10 1 9 11
M  V30 11 1 9 12
M  V30 12 2 10 13
M  V30 13 1 11 14
M  V30 14 2 11 15
M  V30 15 1 14 16
M  V30 16 1 14 17
M  V30 17 2 16 18
M  V30 18 2 16 19
M  V30 19 1 16 20
M  V30 20 1 17 21
M  V30 21 2 20 22
M  V30 22 1 20 23
M  V30 23 1 21 24
M  V30 24 1 22 25
M  V30 25 1 22 26
M  V30 26 2 23 27
M  V30 27 1 24 28
M  V30 28 1 25 29
M  V30 29 1 26 30
M  V30 30 2 26 31
M  V30 31 1 30 32
M  V30 32 1 31 33
M  V30 33 1 33 34
M  V30 34 1 34 35
M  V30 35 1 34 36 CFG=3
M  V30 36 2 35 37
M  V30 37 1 35 38
M  V30 38 1 6 7
M  V30 39 1 13 15
M  V30 40 1 27 31
M  V30 END BOND
M  V30 BEGIN COLLECTION
M  V30 MDLV30/STERAC1 ATOMS=(1 34)
M  V30 END COLLECTION
M  V30 END CTAB
M  END
>  <Molecule ChEMBL ID>
CHEMBL1760404

>  <Smiles>
CCCCN(c1cccc(-c2ccc(Cl)cc2)c1C)S(=O)(=O)c1ccc(OC(C)C(=O)O)c(OC)c1OC

>  <IC50_nM>
3981.07

>  <Assay Description>
Displacement of [3H]GW 2433 from human PPARgamma by scintillation proximity assay

$$$$
CHEMBL484467
Actelion Java MolfileCreator 2.0

  0  0  0  0  0  0              0 V3000
M  V30 BEGIN CTAB
M  V30 COUNTS 32 35 0 0 0
M  V30 BEGIN ATOM
M  V30 1 Br 5.1961 3.75 0.0 0
M  V30 2 C 5.1961 2.25 0.0 0
M  V30 3 C 3.8971 1.5 0.0 0
M  V30 4 C 6.4951 1.5 0.0 0
M  V30 5 C 3.8971 0.0 0.0 0
M  V30 6 C 6.4951 0.0 0.0 0
M  V30 7 N 2.598 -0.75 0.0 0
M  V30 8 C 5.1961 -0.75 0.0 0
M  V30 9 C 1.299 0.0 0.0 0
M  V30 10 C 5.1961 -2.25 0.0 0
M  V30 11 O 1.299 1.5 0.0 0
M  V30 12 C 0.0 -0.75 0.0 0
M  V30 13 O 3.8971 -3.0 0.0 0
M  V30 14 O 6.4951 -3.0 0.0 0
M  V30 15 C -1.299 0.0 0.0 0
M  V30 16 C 0.0 -2.25 0.0 0
M  V30 17 C -2.598 -0.75 0.0 0
M  V30 18 C -1.299 -3.0 0.0 0
M  V30 19 S -3.8971 0.0 0.0 0
M  V30 20 C -2.598 -2.25 0.0 0
M  V30 21 O -3.1471 1.299 0.0 0
M  V30 22 O -4.6471 1.299 0.0 0
M  V30 23 N -5.1961 -0.75 0.0 0
M  V30 24 C -6.4951 0.0 0.0 0
M  V30 25 C -5.1961 -2.25 0.0 0
M  V30 26 C -7.7942 -0.75 0.0 0
M  V30 27 C -6.4951 -3.0 0.0 0
M  V30 28 C -7.7942 -2.25 0.0 0
M  V30 29 C -9.0932 0.0 0.0 0
M  V30 30 C -9.0932 -3.0 0.0 0
M  V30 31 C -10.3923 -0.75 0.0 0
M  V30 32 C -10.3923 -2.25 0.0 0
M  V30 END ATOM
M  V30 BEGIN BOND
M  V30 1 1 1 2
M  V30 2 2 2 3
M  V30 3 1 2 4
M  V30 4 1 3 5
M  V30 5 2 4 6
M  V30 6 1 5 7
M  V30 7 2 5 8
M  V30 8 1 7 9
M  V30 9 1 8 10
M  V30 10 2 9 11
M  V30 11 1 9 12
M  V30 12 2 10 13
M  V30 13 1 10 14
M  V30 14 2 12 15
M  V30 15 1 12 16
M  V30 16 1 15 17
M  V30 17 2 16 18
M  V30 18 1 17 19
M  V30 19 2 17 20
M  V30 20 2 19 21
M  V30 21 2 19 22
M  V30 22 1 19 23
M  V30 23 1 23 24
M  V30 24 1 23 25
M  V30 25 1 24 26
M  V30 26 1 25 27
M  V30 27 2 26 28
M  V30 28 1 26 29
M  V30 29 1 28 30
M  V30 30 2 29 31
M  V30 31 2 30 32
M  V30 32 1 6 8
M  V30 33 1 18 20
M  V30 34 1 27 28
M  V30 35 1 31 32
M  V30 END BOND
M  V30 END CTAB
M  END
>  <Molecule ChEMBL ID>
CHEMBL484467

>  <Smiles>
O=C(Nc1cc(Br)ccc1C(=O)O)c1cccc(S(=O)(=O)N2CCc3ccccc3C2)c1

>  <IC50_nM>
3981.07

>  <Assay Description>
Displacement of radiolabeled ligand from human PPARgamma by competition-binding assay

$$$$
CHEMBL1760271
Actelion Java MolfileCreator 2.0

  0  0  0  0  0  0              0 V3000
M  V30 BEGIN CTAB
M  V30 COUNTS 39 41 0 0 0
M  V30 BEGIN ATOM
M  V30 1 Cl -1.299 -7.5 0.0 0
M  V30 2 C 0.0 -6.75 0.0 0
M  V30 3 C 0.0 -5.25 0.0 0
M  V30 4 C 1.299 -7.5 0.0 0
M  V30 5 C 1.299 -4.5 0.0 0
M  V30 6 C 2.598 -6.75 0.0 0
M  V30 7 C 2.598 -5.25 0.0 0
M  V30 8 C 3.8971 -4.5 0.0 0
M  V30 9 C 3.8971 -3.0 0.0 0
M  V30 10 C 5.1961 -5.25 0.0 0
M  V30 11 C 5.1961 -2.25 0.0 0
M  V30 12 C 2.598 -2.25 0.0 0
M  V30 13 C 6.4951 -4.5 0.0 0
M  V30 14 N 5.1961 -0.75 0.0 0
M  V30 15 C 6.4951 -3.0 0.0 0
M  V30 16 S 6.4951 0.0 0.0 0
M  V30 17 C 3.8971 0.0 0.0 0
M  V30 18 O 7.2451 1.299 0.0 0
M  V30 19 O 5.7451 1.299 0.0 0
M  V30 20 C 7.7942 -0.75 0.0 0
M  V30 21 C 2.598 -0.75 0.0 0
M  V30 22 C 9.0932 0.0 0.0 0
M  V30 23 C 7.7942 -2.25 0.0 0
M  V30 24 C 1.299 0.0 0.0 0
M  V30 25 C 10.3923 -0.75 0.0 0
M  V30 26 C 9.0932 1.5 0.0 0
M  V30 27 C 9.0932 -3.0 0.0 0
M  V30 28 C 0.0 -0.75 0.0 0
M  V30 29 C 10.3923 -2.25 0.0 0
M  V30 30 C 11.6913 0.0 0.0 0
M  V30 31 O 11.6913 -3.0 0.0 0
M  V30 32 C 11.6913 -4.5 0.0 0 CFG=2
M  V30 33 C 10.3923 -5.25 0.0 0
M  V30 34 C 12.9903 -5.25 0.0 0
M  V30 35 O 10.3923 -6.75 0.0 0
M  V30 36 O 9.0932 -4.5 0.0 0
M  V30 37 C 12.9903 -6.75 0.0 0
M  V30 38 C 14.2894 -7.5 0.0 0
M  V30 39 C 14.2894 -9.0 0.0 0
M  V30 END ATOM
M  V30 BEGIN BOND
M  V30 1 1 1 2
M  V30 2 2 2 3
M  V30 3 1 2 4
M  V30 4 1 3 5
M  V30 5 2 4 6
M  V30 6 2 5 7
M  V30 7 1 7 8
M  V30 8 2 8 9
M  V30 9 1 8 10
M  V30 10 1 9 11
M  V30 11 1 9 12
M  V30 12 2 10 13
M  V30 13 1 11 14
M  V30 14 2 11 15
M  V30 15 1 14 16
M  V30 16 1 14 17
M  V30 17 2 16 18
M  V30 18 2 16 19
M  V30 19 1 16 20
M  V30 20 1 17 21
M  V30 21 2 20 22
M  V30 22 1 20 23
M  V30 23 1 21 24
M  V30 24 1 22 25
M  V30 25 1 22 26
M  V30 26 2 23 27
M  V30 27 1 24 28
M  V30 28 2 25 29
M  V30 29 1 25 30
M  V30 30 1 29 31
M  V30 31 1 32 31 CFG=1
M  V30 32 1 32 33
M  V30 33 1 32 34
M  V30 34 2 33 35
M  V30 35 1 33 36
M  V30 36 1 34 37
M  V30 37 1 37 38
M  V30 38 1 38 39
M  V30 39 1 6 7
M  V30 40 1 13 15
M  V30 41 1 27 29
M  V30 END BOND
M  V30 BEGIN COLLECTION
M  V30 MDLV30/STERAC1 ATOMS=(1 32)
M  V30 END COLLECTION
M  V30 END CTAB
M  END
>  <Molecule ChEMBL ID>
CHEMBL1760271

>  <Smiles>
CCCCC(Oc1ccc(S(=O)(=O)N(CCCC)c2cccc(-c3ccc(Cl)cc3)c2C)c(C)c1C)C(=O)O

>  <IC50_nM>
3981.07

>  <Assay Description>
Displacement of [3H]GW 2433 from human PPARgamma by scintillation proximity assay

$$$$
CHEMBL496726
Actelion Java MolfileCreator 2.0

  0  0  0  0  0  0              0 V3000
M  V30 BEGIN CTAB
M  V30 COUNTS 33 36 0 0 0
M  V30 BEGIN ATOM
M  V30 1 Cl 7.7942 2.25 0.0 0
M  V30 2 C 6.4951 1.5 0.0 0
M  V30 3 C 6.4951 0.0 0.0 0
M  V30 4 C 5.1961 2.25 0.0 0
M  V30 5 C 5.1961 -0.75 0.0 0
M  V30 6 C 3.8971 1.5 0.0 0
M  V30 7 C 3.8971 0.0 0.0 0
M  V30 8 C 5.1961 -2.25 0.0 0
M  V30 9 N 2.598 -0.75 0.0 0
M  V30 10 O 6.4951 -3.0 0.0 0
M  V30 11 O 3.8971 -3.0 0.0 0
M  V30 12 C 1.299 0.0 0.0 0
M  V30 13 O 1.299 1.5 0.0 0
M  V30 14 C 0.0 -0.75 0.0 0
M  V30 15 C -1.299 0.0 0.0 0
M  V30 16 C 0.0 -2.25 0.0 0
M  V30 17 C -2.598 -0.75 0.0 0
M  V30 18 C -1.299 -3.0 0.0 0
M  V30 19 S -3.8971 0.0 0.0 0
M  V30 20 C -2.598 -2.25 0.0 0
M  V30 21 O -3.1471 1.299 0.0 0
M  V30 22 O -4.6471 1.299 0.0 0
M  V30 23 N -5.1961 -0.75 0.0 0
M  V30 24 C -6.4951 0.0 0.0 0
M  V30 25 C -5.1961 -2.25 0.0 0
M  V30 26 C -7.7942 -0.75 0.0 0
M  V30 27 C -6.4951 -3.0 0.0 0
M  V30 28 C -7.7942 -2.25 0.0 0
M  V30 29 C -9.0932 0.0 0.0 0
M  V30 30 C -9.0932 -3.0 0.0 0
M  V30 31 C -10.3923 -0.75 0.0 0
M  V30 32 C -10.3923 -2.25 0.0 0
M  V30 33 Cl -11.6913 0.0 0.0 0
M  V30 END ATOM
M  V30 BEGIN BOND
M  V30 1 1 1 2
M  V30 2 2 2 3
M  V30 3 1 2 4
M  V30 4 1 3 5
M  V30 5 2 4 6
M  V30 6 2 5 7
M  V30 7 1 5 8
M  V30 8 1 7 9
M  V30 9 2 8 10
M  V30 10 1 8 11
M  V30 11 1 9 12
M  V30 12 2 12 13
M  V30 13 1 12 14
M  V30 14 2 14 15
M  V30 15 1 14 16
M  V30 16 1 15 17
M  V30 17 2 16 18
M  V30 18 1 17 19
M  V30 19 2 17 20
M  V30 20 2 19 21
M  V30 21 2 19 22
M  V30 22 1 19 23
M  V30 23 1 23 24
M  V30 24 1 23 25
M  V30 25 1 24 26
M  V30 26 1 25 27
M  V30 27 2 26 28
M  V30 28 1 26 29
M  V30 29 1 28 30
M  V30 30 2 29 31
M  V30 31 2 30 32
M  V30 32 1 31 33
M  V30 33 1 6 7
M  V30 34 1 18 20
M  V30 35 1 27 28
M  V30 36 1 31 32
M  V30 END BOND
M  V30 END CTAB
M  END
>  <Molecule ChEMBL ID>
CHEMBL496726

>  <Smiles>
O=C(Nc1ccc(Cl)cc1C(=O)O)c1cccc(S(=O)(=O)N2CCc3ccc(Cl)cc3C2)c1

>  <IC50_nM>
3981.07

>  <Assay Description>
Displacement of radiolabeled ligand from human PPARgamma by competition-binding assay

$$$$
CHEMBL485088
Actelion Java MolfileCreator 2.0

  0  0  0  0  0  0              0 V3000
M  V30 BEGIN CTAB
M  V30 COUNTS 32 35 0 0 0
M  V30 BEGIN ATOM
M  V30 1 Cl 7.7942 2.25 0.0 0
M  V30 2 C 6.4951 1.5 0.0 0
M  V30 3 C 6.4951 0.0 0.0 0
M  V30 4 C 5.1961 2.25 0.0 0
M  V30 5 C 5.1961 -0.75 0.0 0
M  V30 6 C 3.8971 1.5 0.0 0
M  V30 7 C 3.8971 0.0 0.0 0
M  V30 8 C 5.1961 -2.25 0.0 0
M  V30 9 N 2.598 -0.75 0.0 0
M  V30 10 O 6.4951 -3.0 0.0 0
M  V30 11 O 3.8971 -3.0 0.0 0
M  V30 12 C 1.299 0.0 0.0 0
M  V30 13 O 1.299 1.5 0.0 0
M  V30 14 C 0.0 -0.75 0.0 0
M  V30 15 C -1.299 0.0 0.0 0
M  V30 16 C 0.0 -2.25 0.0 0
M  V30 17 C -2.598 -0.75 0.0 0
M  V30 18 C -1.299 -3.0 0.0 0
M  V30 19 S -3.8971 0.0 0.0 0
M  V30 20 C -2.598 -2.25 0.0 0
M  V30 21 O -3.1471 1.299 0.0 0
M  V30 22 O -4.6471 1.299 0.0 0
M  V30 23 N -5.1961 -0.75 0.0 0
M  V30 24 C -6.4951 0.0 0.0 0
M  V30 25 C -5.1961 -2.25 0.0 0
M  V30 26 C -7.7942 -0.75 0.0 0
M  V30 27 C -6.4951 -3.0 0.0 0
M  V30 28 C -7.7942 -2.25 0.0 0
M  V30 29 C -9.0932 0.0 0.0 0
M  V30 30 C -9.0932 -3.0 0.0 0
M  V30 31 C -10.3923 -0.75 0.0 0
M  V30 32 C -10.3923 -2.25 0.0 0
M  V30 END ATOM
M  V30 BEGIN BOND
M  V30 1 1 1 2
M  V30 2 2 2 3
M  V30 3 1 2 4
M  V30 4 1 3 5
M  V30 5 2 4 6
M  V30 6 2 5 7
M  V30 7 1 5 8
M  V30 8 1 7 9
M  V30 9 2 8 10
M  V30 10 1 8 11
M  V30 11 1 9 12
M  V30 12 2 12 13
M  V30 13 1 12 14
M  V30 14 2 14 15
M  V30 15 1 14 16
M  V30 16 1 15 17
M  V30 17 2 16 18
M  V30 18 1 17 19
M  V30 19 2 17 20
M  V30 20 2 19 21
M  V30 21 2 19 22
M  V30 22 1 19 23
M  V30 23 1 23 24
M  V30 24 1 23 25
M  V30 25 1 24 26
M  V30 26 1 25 27
M  V30 27 2 26 28
M  V30 28 1 26 29
M  V30 29 1 28 30
M  V30 30 2 29 31
M  V30 31 2 30 32
M  V30 32 1 6 7
M  V30 33 1 18 20
M  V30 34 1 27 28
M  V30 35 1 31 32
M  V30 END BOND
M  V30 END CTAB
M  END
>  <Molecule ChEMBL ID>
CHEMBL485088

>  <Smiles>
O=C(Nc1ccc(Cl)cc1C(=O)O)c1cccc(S(=O)(=O)N2CCc3ccccc3C2)c1

>  <IC50_nM>
3981.07

>  <Assay Description>
Displacement of radiolabeled ligand from human PPARgamma by competition-binding assay

$$$$
CHEMBL484467
Actelion Java MolfileCreator 2.0

  0  0  0  0  0  0              0 V3000
M  V30 BEGIN CTAB
M  V30 COUNTS 32 35 0 0 0
M  V30 BEGIN ATOM
M  V30 1 Br 5.1961 3.75 0.0 0
M  V30 2 C 5.1961 2.25 0.0 0
M  V30 3 C 3.8971 1.5 0.0 0
M  V30 4 C 6.4951 1.5 0.0 0
M  V30 5 C 3.8971 0.0 0.0 0
M  V30 6 C 6.4951 0.0 0.0 0
M  V30 7 N 2.598 -0.75 0.0 0
M  V30 8 C 5.1961 -0.75 0.0 0
M  V30 9 C 1.299 0.0 0.0 0
M  V30 10 C 5.1961 -2.25 0.0 0
M  V30 11 O 1.299 1.5 0.0 0
M  V30 12 C 0.0 -0.75 0.0 0
M  V30 13 O 3.8971 -3.0 0.0 0
M  V30 14 O 6.4951 -3.0 0.0 0
M  V30 15 C -1.299 0.0 0.0 0
M  V30 16 C 0.0 -2.25 0.0 0
M  V30 17 C -2.598 -0.75 0.0 0
M  V30 18 C -1.299 -3.0 0.0 0
M  V30 19 S -3.8971 0.0 0.0 0
M  V30 20 C -2.598 -2.25 0.0 0
M  V30 21 O -3.1471 1.299 0.0 0
M  V30 22 O -4.6471 1.299 0.0 0
M  V30 23 N -5.1961 -0.75 0.0 0
M  V30 24 C -6.4951 0.0 0.0 0
M  V30 25 C -5.1961 -2.25 0.0 0
M  V30 26 C -7.7942 -0.75 0.0 0
M  V30 27 C -6.4951 -3.0 0.0 0
M  V30 28 C -7.7942 -2.25 0.0 0
M  V30 29 C -9.0932 0.0 0.0 0
M  V30 30 C -9.0932 -3.0 0.0 0
M  V30 31 C -10.3923 -0.75 0.0 0
M  V30 32 C -10.3923 -2.25 0.0 0
M  V30 END ATOM
M  V30 BEGIN BOND
M  V30 1 1 1 2
M  V30 2 2 2 3
M  V30 3 1 2 4
M  V30 4 1 3 5
M  V30 5 2 4 6
M  V30 6 1 5 7
M  V30 7 2 5 8
M  V30 8 1 7 9
M  V30 9 1 8 10
M  V30 10 2 9 11
M  V30 11 1 9 12
M  V30 12 2 10 13
M  V30 13 1 10 14
M  V30 14 2 12 15
M  V30 15 1 12 16
M  V30 16 1 15 17
M  V30 17 2 16 18
M  V30 18 1 17 19
M  V30 19 2 17 20
M  V30 20 2 19 21
M  V30 21 2 19 22
M  V30 22 1 19 23
M  V30 23 1 23 24
M  V30 24 1 23 25
M  V30 25 1 24 26
M  V30 26 1 25 27
M  V30 27 2 26 28
M  V30 28 1 26 29
M  V30 29 1 28 30
M  V30 30 2 29 31
M  V30 31 2 30 32
M  V30 32 1 6 8
M  V30 33 1 18 20
M  V30 34 1 27 28
M  V30 35 1 31 32
M  V30 END BOND
M  V30 END CTAB
M  END
>  <Molecule ChEMBL ID>
CHEMBL484467

>  <Smiles>
O=C(Nc1cc(Br)ccc1C(=O)O)c1cccc(S(=O)(=O)N2CCc3ccccc3C2)c1

>  <IC50_nM>
3981.07

>  <Assay Description>
Agonist activity at PPARgamma

$$$$
CHEMBL1760421
Actelion Java MolfileCreator 2.0

  0  0  0  0  0  0              0 V3000
M  V30 BEGIN CTAB
M  V30 COUNTS 36 38 0 0 0
M  V30 BEGIN ATOM
M  V30 1 Cl 1.299 -9.0 0.0 0
M  V30 2 C 1.299 -7.5 0.0 0
M  V30 3 C 2.598 -6.75 0.0 0
M  V30 4 C 0.0 -6.75 0.0 0
M  V30 5 C 2.598 -5.25 0.0 0
M  V30 6 C 0.0 -5.25 0.0 0
M  V30 7 C 3.8971 -4.5 0.0 0
M  V30 8 C 1.299 -4.5 0.0 0
M  V30 9 C 3.8971 -3.0 0.0 0
M  V30 10 C 5.1961 -5.25 0.0 0
M  V30 11 C 5.1961 -2.25 0.0 0
M  V30 12 C 2.598 -2.25 0.0 0
M  V30 13 C 6.4951 -4.5 0.0 0
M  V30 14 N 5.1961 -0.75 0.0 0
M  V30 15 C 6.4951 -3.0 0.0 0
M  V30 16 S 6.4951 0.0 0.0 0
M  V30 17 C 3.8971 0.0 0.0 0
M  V30 18 O 7.2451 1.299 0.0 0
M  V30 19 O 5.7451 1.299 0.0 0
M  V30 20 C 7.7942 -0.75 0.0 0
M  V30 21 C 2.598 -0.75 0.0 0
M  V30 22 C 9.0932 0.0 0.0 0
M  V30 23 C 7.7942 -2.25 0.0 0
M  V30 24 C 1.299 0.0 0.0 0
M  V30 25 C 10.3923 -0.75 0.0 0
M  V30 26 C 9.0932 1.5 0.0 0
M  V30 27 C 9.0932 -3.0 0.0 0
M  V30 28 C 0.0 -0.75 0.0 0
M  V30 29 C 10.3923 -2.25 0.0 0
M  V30 30 C 11.6913 0.0 0.0 0
M  V30 31 O 11.6913 -3.0 0.0 0
M  V30 32 C 11.6913 -4.5 0.0 0 CFG=2
M  V30 33 C 12.9903 -5.25 0.0 0
M  V30 34 C 10.3923 -5.25 0.0 0
M  V30 35 O 14.2894 -4.5 0.0 0
M  V30 36 O 12.9903 -6.75 0.0 0
M  V30 END ATOM
M  V30 BEGIN BOND
M  V30 1 1 1 2
M  V30 2 2 2 3
M  V30 3 1 2 4
M  V30 4 1 3 5
M  V30 5 2 4 6
M  V30 6 1 5 7
M  V30 7 2 5 8
M  V30 8 2 7 9
M  V30 9 1 7 10
M  V30 10 1 9 11
M  V30 11 1 9 12
M  V30 12 2 10 13
M  V30 13 1 11 14
M  V30 14 2 11 15
M  V30 15 1 14 16
M  V30 16 1 14 17
M  V30 17 2 16 18
M  V30 18 2 16 19
M  V30 19 1 16 20
M  V30 20 1 17 21
M  V30 21 2 20 22
M  V30 22 1 20 23
M  V30 23 1 21 24
M  V30 24 1 22 25
M  V30 25 1 22 26
M  V30 26 2 23 27
M  V30 27 1 24 28
M  V30 28 2 25 29
M  V30 29 1 25 30
M  V30 30 1 29 31
M  V30 31 1 31 32
M  V30 32 1 32 33
M  V30 33 1 32 34 CFG=3
M  V30 34 2 33 35
M  V30 35 1 33 36
M  V30 36 1 6 8
M  V30 37 1 13 15
M  V30 38 1 27 29
M  V30 END BOND
M  V30 BEGIN COLLECTION
M  V30 MDLV30/STERAC1 ATOMS=(1 32)
M  V30 END COLLECTION
M  V30 END CTAB
M  END
>  <Molecule ChEMBL ID>
CHEMBL1760421

>  <Smiles>
CCCCN(c1cccc(-c2cccc(Cl)c2)c1C)S(=O)(=O)c1ccc(OC(C)C(=O)O)c(C)c1C

>  <IC50_nM>
3981.07

>  <Assay Description>
Displacement of [3H]GW 2433 from human PPARgamma by scintillation proximity assay

$$$$
CHEMBL1760399
Actelion Java MolfileCreator 2.0

  0  0  0  0  0  0              0 V3000
M  V30 BEGIN CTAB
M  V30 COUNTS 36 38 0 0 0
M  V30 BEGIN ATOM
M  V30 1 Cl 9.0932 1.5 0.0 0
M  V30 2 C 9.0932 0.0 0.0 0
M  V30 3 C 10.3923 -0.75 0.0 0
M  V30 4 C 7.7942 -0.75 0.0 0
M  V30 5 Cl 11.6913 0.0 0.0 0
M  V30 6 C 10.3923 -2.25 0.0 0
M  V30 7 S 6.4951 0.0 0.0 0
M  V30 8 C 7.7942 -2.25 0.0 0
M  V30 9 O 11.6913 -3.0 0.0 0
M  V30 10 C 9.0932 -3.0 0.0 0
M  V30 11 O 7.2451 1.299 0.0 0
M  V30 12 O 5.7451 1.299 0.0 0
M  V30 13 N 5.1961 -0.75 0.0 0
M  V30 14 C 11.6913 -4.5 0.0 0 CFG=2
M  V30 15 C 5.1961 -2.25 0.0 0
M  V30 16 C 3.8971 0.0 0.0 0
M  V30 17 C 12.9903 -5.25 0.0 0
M  V30 18 C 10.3923 -5.25 0.0 0
M  V30 19 C 3.8971 -3.0 0.0 0
M  V30 20 C 6.4951 -3.0 0.0 0
M  V30 21 C 2.598 -0.75 0.0 0
M  V30 22 O 14.2894 -4.5 0.0 0
M  V30 23 O 12.9903 -6.75 0.0 0
M  V30 24 C 3.8971 -4.5 0.0 0
M  V30 25 C 2.598 -2.25 0.0 0
M  V30 26 C 6.4951 -4.5 0.0 0
M  V30 27 C 1.299 0.0 0.0 0
M  V30 28 C 2.598 -5.25 0.0 0
M  V30 29 C 5.1961 -5.25 0.0 0
M  V30 30 C 0.0 -0.75 0.0 0
M  V30 31 C 1.299 -4.5 0.0 0
M  V30 32 C 2.598 -6.75 0.0 0
M  V30 33 C 0.0 -5.25 0.0 0
M  V30 34 C 1.299 -7.5 0.0 0
M  V30 35 C 0.0 -6.75 0.0 0
M  V30 36 Cl -1.299 -7.5 0.0 0
M  V30 END ATOM
M  V30 BEGIN BOND
M  V30 1 1 1 2
M  V30 2 2 2 3
M  V30 3 1 2 4
M  V30 4 1 3 5
M  V30 5 1 3 6
M  V30 6 1 4 7
M  V30 7 2 4 8
M  V30 8 1 6 9
M  V30 9 2 6 10
M  V30 10 2 7 11
M  V30 11 2 7 12
M  V30 12 1 7 13
M  V30 13 1 9 14
M  V30 14 1 13 15
M  V30 15 1 13 16
M  V30 16 1 14 17
M  V30 17 1 14 18 CFG=3
M  V30 18 2 15 19
M  V30 19 1 15 20
M  V30 20 1 16 21
M  V30 21 2 17 22
M  V30 22 1 17 23
M  V30 23 1 19 24
M  V30 24 1 19 25
M  V30 25 2 20 26
M  V30 26 1 21 27
M  V30 27 1 24 28
M  V30 28 2 24 29
M  V30 29 1 27 30
M  V30 30 2 28 31
M  V30 31 1 28 32
M  V30 32 1 31 33
M  V30 33 2 32 34
M  V30 34 2 33 35
M  V30 35 1 35 36
M  V30 36 1 8 10
M  V30 37 1 26 29
M  V30 38 1 34 35
M  V30 END BOND
M  V30 BEGIN COLLECTION
M  V30 MDLV30/STERAC1 ATOMS=(1 14)
M  V30 END COLLECTION
M  V30 END CTAB
M  END
>  <Molecule ChEMBL ID>
CHEMBL1760399

>  <Smiles>
CCCCN(c1cccc(-c2ccc(Cl)cc2)c1C)S(=O)(=O)c1ccc(OC(C)C(=O)O)c(Cl)c1Cl

>  <IC50_nM>
3981.07

>  <Assay Description>
Displacement of [3H]GW 2433 from human PPARgamma by scintillation proximity assay

$$$$
CHEMBL497789
Actelion Java MolfileCreator 2.0

  0  0  0  0  0  0              0 V3000
M  V30 BEGIN CTAB
M  V30 COUNTS 33 36 0 0 0
M  V30 BEGIN ATOM
M  V30 1 Cl 7.7942 2.25 0.0 0
M  V30 2 C 6.4951 1.5 0.0 0
M  V30 3 C 6.4951 0.0 0.0 0
M  V30 4 C 5.1961 2.25 0.0 0
M  V30 5 C 5.1961 -0.75 0.0 0
M  V30 6 C 3.8971 1.5 0.0 0
M  V30 7 C 3.8971 0.0 0.0 0
M  V30 8 C 5.1961 -2.25 0.0 0
M  V30 9 N 2.598 -0.75 0.0 0
M  V30 10 O 6.4951 -3.0 0.0 0
M  V30 11 O 3.8971 -3.0 0.0 0
M  V30 12 C 1.299 0.0 0.0 0
M  V30 13 O 1.299 1.5 0.0 0
M  V30 14 C 0.0 -0.75 0.0 0
M  V30 15 C -1.299 0.0 0.0 0
M  V30 16 C 0.0 -2.25 0.0 0
M  V30 17 C -2.598 -0.75 0.0 0
M  V30 18 C -1.299 -3.0 0.0 0
M  V30 19 S -3.8971 0.0 0.0 0
M  V30 20 C -2.598 -2.25 0.0 0
M  V30 21 O -3.1471 1.299 0.0 0
M  V30 22 O -4.6471 1.299 0.0 0
M  V30 23 N -5.1961 -0.75 0.0 0
M  V30 24 C -6.5664 -0.1398 0.0 0
M  V30 25 C -5.3529 -2.2417 0.0 0
M  V30 26 C -7.5701 -1.2546 0.0 0
M  V30 27 C -7.03 1.2866 0.0 0
M  V30 28 C -6.8201 -2.5536 0.0 0
M  V30 29 C -9.0373 -0.9427 0.0 0
M  V30 30 C -8.4972 1.5985 0.0 0
M  V30 31 C -9.5009 0.4838 0.0 0
M  V30 32 O -10.9681 0.7957 0.0 0
M  V30 33 C -11.9718 -0.319 0.0 0
M  V30 END ATOM
M  V30 BEGIN BOND
M  V30 1 1 1 2
M  V30 2 2 2 3
M  V30 3 1 2 4
M  V30 4 1 3 5
M  V30 5 2 4 6
M  V30 6 2 5 7
M  V30 7 1 5 8
M  V30 8 1 7 9
M  V30 9 2 8 10
M  V30 10 1 8 11
M  V30 11 1 9 12
M  V30 12 2 12 13
M  V30 13 1 12 14
M  V30 14 2 14 15
M  V30 15 1 14 16
M  V30 16 1 15 17
M  V30 17 2 16 18
M  V30 18 1 17 19
M  V30 19 2 17 20
M  V30 20 2 19 21
M  V30 21 2 19 22
M  V30 22 1 19 23
M  V30 23 1 23 24
M  V30 24 1 23 25
M  V30 25 2 24 26
M  V30 26 1 24 27
M  V30 27 2 25 28
M  V30 28 1 26 29
M  V30 29 2 27 30
M  V30 30 2 29 31
M  V30 31 1 31 32
M  V30 32 1 32 33
M  V30 33 1 6 7
M  V30 34 1 18 20
M  V30 35 1 26 28
M  V30 36 1 30 31
M  V30 END BOND
M  V30 END CTAB
M  END
>  <Molecule ChEMBL ID>
CHEMBL497789

>  <Smiles>
COc1ccc2c(ccn2S(=O)(=O)c2cccc(C(=O)Nc3ccc(Cl)cc3C(=O)O)c2)c1

>  <IC50_nM>
3981.07

>  <Assay Description>
Displacement of radiolabeled ligand from human PPARgamma by competition-binding assay

$$$$
CHEMBL485088
Actelion Java MolfileCreator 2.0

  0  0  0  0  0  0              0 V3000
M  V30 BEGIN CTAB
M  V30 COUNTS 32 35 0 0 0
M  V30 BEGIN ATOM
M  V30 1 Cl 7.7942 2.25 0.0 0
M  V30 2 C 6.4951 1.5 0.0 0
M  V30 3 C 6.4951 0.0 0.0 0
M  V30 4 C 5.1961 2.25 0.0 0
M  V30 5 C 5.1961 -0.75 0.0 0
M  V30 6 C 3.8971 1.5 0.0 0
M  V30 7 C 3.8971 0.0 0.0 0
M  V30 8 C 5.1961 -2.25 0.0 0
M  V30 9 N 2.598 -0.75 0.0 0
M  V30 10 O 6.4951 -3.0 0.0 0
M  V30 11 O 3.8971 -3.0 0.0 0
M  V30 12 C 1.299 0.0 0.0 0
M  V30 13 O 1.299 1.5 0.0 0
M  V30 14 C 0.0 -0.75 0.0 0
M  V30 15 C -1.299 0.0 0.0 0
M  V30 16 C 0.0 -2.25 0.0 0
M  V30 17 C -2.598 -0.75 0.0 0
M  V30 18 C -1.299 -3.0 0.0 0
M  V30 19 S -3.8971 0.0 0.0 0
M  V30 20 C -2.598 -2.25 0.0 0
M  V30 21 O -3.1471 1.299 0.0 0
M  V30 22 O -4.6471 1.299 0.0 0
M  V30 23 N -5.1961 -0.75 0.0 0
M  V30 24 C -6.4951 0.0 0.0 0
M  V30 25 C -5.1961 -2.25 0.0 0
M  V30 26 C -7.7942 -0.75 0.0 0
M  V30 27 C -6.4951 -3.0 0.0 0
M  V30 28 C -7.7942 -2.25 0.0 0
M  V30 29 C -9.0932 0.0 0.0 0
M  V30 30 C -9.0932 -3.0 0.0 0
M  V30 31 C -10.3923 -0.75 0.0 0
M  V30 32 C -10.3923 -2.25 0.0 0
M  V30 END ATOM
M  V30 BEGIN BOND
M  V30 1 1 1 2
M  V30 2 2 2 3
M  V30 3 1 2 4
M  V30 4 1 3 5
M  V30 5 2 4 6
M  V30 6 2 5 7
M  V30 7 1 5 8
M  V30 8 1 7 9
M  V30 9 2 8 10
M  V30 10 1 8 11
M  V30 11 1 9 12
M  V30 12 2 12 13
M  V30 13 1 12 14
M  V30 14 2 14 15
M  V30 15 1 14 16
M  V30 16 1 15 17
M  V30 17 2 16 18
M  V30 18 1 17 19
M  V30 19 2 17 20
M  V30 20 2 19 21
M  V30 21 2 19 22
M  V30 22 1 19 23
M  V30 23 1 23 24
M  V30 24 1 23 25
M  V30 25 1 24 26
M  V30 26 1 25 27
M  V30 27 2 26 28
M  V30 28 1 26 29
M  V30 29 1 28 30
M  V30 30 2 29 31
M  V30 31 2 30 32
M  V30 32 1 6 7
M  V30 33 1 18 20
M  V30 34 1 27 28
M  V30 35 1 31 32
M  V30 END BOND
M  V30 END CTAB
M  END
>  <Molecule ChEMBL ID>
CHEMBL485088

>  <Smiles>
O=C(Nc1ccc(Cl)cc1C(=O)O)c1cccc(S(=O)(=O)N2CCc3ccccc3C2)c1

>  <IC50_nM>
3981.07

>  <Assay Description>
Agonist activity at PPARgamma

$$$$
CHEMBL497789
Actelion Java MolfileCreator 2.0

  0  0  0  0  0  0              0 V3000
M  V30 BEGIN CTAB
M  V30 COUNTS 33 36 0 0 0
M  V30 BEGIN ATOM
M  V30 1 Cl 7.7942 2.25 0.0 0
M  V30 2 C 6.4951 1.5 0.0 0
M  V30 3 C 6.4951 0.0 0.0 0
M  V30 4 C 5.1961 2.25 0.0 0
M  V30 5 C 5.1961 -0.75 0.0 0
M  V30 6 C 3.8971 1.5 0.0 0
M  V30 7 C 3.8971 0.0 0.0 0
M  V30 8 C 5.1961 -2.25 0.0 0
M  V30 9 N 2.598 -0.75 0.0 0
M  V30 10 O 6.4951 -3.0 0.0 0
M  V30 11 O 3.8971 -3.0 0.0 0
M  V30 12 C 1.299 0.0 0.0 0
M  V30 13 O 1.299 1.5 0.0 0
M  V30 14 C 0.0 -0.75 0.0 0
M  V30 15 C -1.299 0.0 0.0 0
M  V30 16 C 0.0 -2.25 0.0 0
M  V30 17 C -2.598 -0.75 0.0 0
M  V30 18 C -1.299 -3.0 0.0 0
M  V30 19 S -3.8971 0.0 0.0 0
M  V30 20 C -2.598 -2.25 0.0 0
M  V30 21 O -3.1471 1.299 0.0 0
M  V30 22 O -4.6471 1.299 0.0 0
M  V30 23 N -5.1961 -0.75 0.0 0
M  V30 24 C -6.5664 -0.1398 0.0 0
M  V30 25 C -5.3529 -2.2417 0.0 0
M  V30 26 C -7.5701 -1.2546 0.0 0
M  V30 27 C -7.03 1.2866 0.0 0
M  V30 28 C -6.8201 -2.5536 0.0 0
M  V30 29 C -9.0373 -0.9427 0.0 0
M  V30 30 C -8.4972 1.5985 0.0 0
M  V30 31 C -9.5009 0.4838 0.0 0
M  V30 32 O -10.9681 0.7957 0.0 0
M  V30 33 C -11.9718 -0.319 0.0 0
M  V30 END ATOM
M  V30 BEGIN BOND
M  V30 1 1 1 2
M  V30 2 2 2 3
M  V30 3 1 2 4
M  V30 4 1 3 5
M  V30 5 2 4 6
M  V30 6 2 5 7
M  V30 7 1 5 8
M  V30 8 1 7 9
M  V30 9 2 8 10
M  V30 10 1 8 11
M  V30 11 1 9 12
M  V30 12 2 12 13
M  V30 13 1 12 14
M  V30 14 2 14 15
M  V30 15 1 14 16
M  V30 16 1 15 17
M  V30 17 2 16 18
M  V30 18 1 17 19
M  V30 19 2 17 20
M  V30 20 2 19 21
M  V30 21 2 19 22
M  V30 22 1 19 23
M  V30 23 1 23 24
M  V30 24 1 23 25
M  V30 25 2 24 26
M  V30 26 1 24 27
M  V30 27 2 25 28
M  V30 28 1 26 29
M  V30 29 2 27 30
M  V30 30 2 29 31
M  V30 31 1 31 32
M  V30 32 1 32 33
M  V30 33 1 6 7
M  V30 34 1 18 20
M  V30 35 1 26 28
M  V30 36 1 30 31
M  V30 END BOND
M  V30 END CTAB
M  END
>  <Molecule ChEMBL ID>
CHEMBL497789

>  <Smiles>
COc1ccc2c(ccn2S(=O)(=O)c2cccc(C(=O)Nc3ccc(Cl)cc3C(=O)O)c2)c1

>  <IC50_nM>
3981.07

>  <Assay Description>
Agonist activity at PPARgamma

$$$$
CHEMBL496726
Actelion Java MolfileCreator 2.0

  0  0  0  0  0  0              0 V3000
M  V30 BEGIN CTAB
M  V30 COUNTS 33 36 0 0 0
M  V30 BEGIN ATOM
M  V30 1 Cl 7.7942 2.25 0.0 0
M  V30 2 C 6.4951 1.5 0.0 0
M  V30 3 C 6.4951 0.0 0.0 0
M  V30 4 C 5.1961 2.25 0.0 0
M  V30 5 C 5.1961 -0.75 0.0 0
M  V30 6 C 3.8971 1.5 0.0 0
M  V30 7 C 3.8971 0.0 0.0 0
M  V30 8 C 5.1961 -2.25 0.0 0
M  V30 9 N 2.598 -0.75 0.0 0
M  V30 10 O 6.4951 -3.0 0.0 0
M  V30 11 O 3.8971 -3.0 0.0 0
M  V30 12 C 1.299 0.0 0.0 0
M  V30 13 O 1.299 1.5 0.0 0
M  V30 14 C 0.0 -0.75 0.0 0
M  V30 15 C -1.299 0.0 0.0 0
M  V30 16 C 0.0 -2.25 0.0 0
M  V30 17 C -2.598 -0.75 0.0 0
M  V30 18 C -1.299 -3.0 0.0 0
M  V30 19 S -3.8971 0.0 0.0 0
M  V30 20 C -2.598 -2.25 0.0 0
M  V30 21 O -3.1471 1.299 0.0 0
M  V30 22 O -4.6471 1.299 0.0 0
M  V30 23 N -5.1961 -0.75 0.0 0
M  V30 24 C -6.4951 0.0 0.0 0
M  V30 25 C -5.1961 -2.25 0.0 0
M  V30 26 C -7.7942 -0.75 0.0 0
M  V30 27 C -6.4951 -3.0 0.0 0
M  V30 28 C -7.7942 -2.25 0.0 0
M  V30 29 C -9.0932 0.0 0.0 0
M  V30 30 C -9.0932 -3.0 0.0 0
M  V30 31 C -10.3923 -0.75 0.0 0
M  V30 32 C -10.3923 -2.25 0.0 0
M  V30 33 Cl -11.6913 0.0 0.0 0
M  V30 END ATOM
M  V30 BEGIN BOND
M  V30 1 1 1 2
M  V30 2 2 2 3
M  V30 3 1 2 4
M  V30 4 1 3 5
M  V30 5 2 4 6
M  V30 6 2 5 7
M  V30 7 1 5 8
M  V30 8 1 7 9
M  V30 9 2 8 10
M  V30 10 1 8 11
M  V30 11 1 9 12
M  V30 12 2 12 13
M  V30 13 1 12 14
M  V30 14 2 14 15
M  V30 15 1 14 16
M  V30 16 1 15 17
M  V30 17 2 16 18
M  V30 18 1 17 19
M  V30 19 2 17 20
M  V30 20 2 19 21
M  V30 21 2 19 22
M  V30 22 1 19 23
M  V30 23 1 23 24
M  V30 24 1 23 25
M  V30 25 1 24 26
M  V30 26 1 25 27
M  V30 27 2 26 28
M  V30 28 1 26 29
M  V30 29 1 28 30
M  V30 30 2 29 31
M  V30 31 2 30 32
M  V30 32 1 31 33
M  V30 33 1 6 7
M  V30 34 1 18 20
M  V30 35 1 27 28
M  V30 36 1 31 32
M  V30 END BOND
M  V30 END CTAB
M  END
>  <Molecule ChEMBL ID>
CHEMBL496726

>  <Smiles>
O=C(Nc1ccc(Cl)cc1C(=O)O)c1cccc(S(=O)(=O)N2CCc3ccc(Cl)cc3C2)c1

>  <IC50_nM>
3981.07

>  <Assay Description>
Agonist activity at PPARgamma

$$$$
CHEMBL3943220
Actelion Java MolfileCreator 2.0

  0  0  0  0  0  0              0 V3000
M  V30 BEGIN CTAB
M  V30 COUNTS 33 35 0 0 0
M  V30 BEGIN ATOM
M  V30 1 S 9.0932 0.0 0.0 0
M  V30 2 O 9.8432 1.299 0.0 0
M  V30 3 O 8.3432 1.299 0.0 0
M  V30 4 N 7.7942 -0.75 0.0 0
M  V30 5 C 10.3923 -0.75 0.0 0
M  V30 6 C 6.4951 0.0 0.0 0
M  V30 7 C 10.3923 -2.25 0.0 0
M  V30 8 C 11.6913 0.0 0.0 0
M  V30 9 S 6.4951 1.5 0.0 0
M  V30 10 N 5.1961 -0.75 0.0 0
M  V30 11 C 11.6913 -3.0 0.0 0
M  V30 12 C 12.9903 -0.75 0.0 0
M  V30 13 C 3.8971 0.0 0.0 0
M  V30 14 C 12.9903 -2.25 0.0 0
M  V30 15 C 2.598 -0.75 0.0 0
M  V30 16 N 14.2894 -3.0 0.0 0
M  V30 17 C 1.299 0.0 0.0 0
M  V30 18 C 15.5884 -2.25 0.0 0
M  V30 19 C 0.0 -0.75 0.0 0
M  V30 20 O 15.5884 -0.75 0.0 0
M  V30 21 C 16.8875 -3.0 0.0 0
M  V30 22 N 18.1865 -2.25 0.0 0
M  V30 23 C 19.4855 -3.0 0.0 0
M  V30 24 C 18.1865 -0.75 0.0 0
M  V30 25 O 19.4855 -4.5 0.0 0
M  V30 26 C 20.7846 -2.25 0.0 0
M  V30 27 C 19.4855 0.0 0.0 0
M  V30 28 C 16.8875 0.0 0.0 0
M  V30 29 N 20.7846 -0.75 0.0 0
M  V30 30 C 22.0836 -3.0 0.0 0
M  V30 31 C 19.4855 1.5 0.0 0
M  V30 32 C 16.8875 1.5 0.0 0
M  V30 33 C 18.1865 2.25 0.0 0
M  V30 END ATOM
M  V30 BEGIN BOND
M  V30 1 2 1 2
M  V30 2 2 1 3
M  V30 3 1 1 4
M  V30 4 1 1 5
M  V30 5 1 4 6
M  V30 6 2 5 7
M  V30 7 1 5 8
M  V30 8 2 6 9
M  V30 9 1 6 10
M  V30 10 1 7 11
M  V30 11 2 8 12
M  V30 12 1 10 13
M  V30 13 2 11 14
M  V30 14 1 13 15
M  V30 15 1 14 16
M  V30 16 1 15 17
M  V30 17 1 16 18
M  V30 18 1 17 19
M  V30 19 2 18 20
M  V30 20 1 18 21
M  V30 21 1 21 22
M  V30 22 1 22 23
M  V30 23 1 22 24
M  V30 24 2 23 25
M  V30 25 1 23 26
M  V30 26 2 24 27
M  V30 27 1 24 28
M  V30 28 2 26 29
M  V30 29 1 26 30
M  V30 30 1 27 31
M  V30 31 2 28 32
M  V30 32 2 31 33
M  V30 33 1 12 14
M  V30 34 1 27 29
M  V30 35 1 32 33
M  V30 END BOND
M  V30 END CTAB
M  END
>  <Molecule ChEMBL ID>
CHEMBL3943220

>  <Smiles>
CCCCNC(=S)NS(=O)(=O)c1ccc(NC(=O)Cn2c(=O)c(C)nc3ccccc32)cc1

>  <IC50_nM>
4000

>  <Assay Description>
Displacement of fluormone-PPARgamma green from GST-tagged PPARgamma-LBD (unknown origin) by fluorescence polarization assay

$$$$
CHEMBL3613709
Actelion Java MolfileCreator 2.0

  0  0  0  0  0  0              0 V3000
M  V30 BEGIN CTAB
M  V30 COUNTS 33 37 0 0 0
M  V30 BEGIN ATOM
M  V30 1 S 10.0211 1.8036 0.0 0
M  V30 2 O 11.3201 2.5536 0.0 0
M  V30 3 O 10.0211 3.3036 0.0 0
M  V30 4 N 10.7711 0.5046 0.0 0
M  V30 5 C 8.5211 1.8036 0.0 0
M  V30 6 C 12.2711 0.5046 0.0 0
M  V30 7 C 7.7711 0.5046 0.0 0
M  V30 8 C 7.7711 3.1026 0.0 0
M  V30 9 N 13.1528 -0.7089 0.0 0
M  V30 10 C 13.1528 1.7181 0.0 0
M  V30 11 C 6.2711 0.5046 0.0 0
M  V30 12 C 6.2711 3.1026 0.0 0
M  V30 13 N 14.5794 -0.2453 0.0 0
M  V30 14 N 14.5794 1.2546 0.0 0
M  V30 15 C 5.5211 1.8036 0.0 0
M  V30 16 C 5.2674 -0.6101 0.0 0
M  V30 17 C 15.7929 -1.127 0.0 0
M  V30 18 C 4.0539 1.4917 0.0 0
M  V30 19 N 3.8971 0.0 0.0 0
M  V30 20 C 16.0275 -2.6086 0.0 0
M  V30 21 C 17.2744 -0.8924 0.0 0
M  V30 22 C 2.598 -0.75 0.0 0
M  V30 23 C 17.5091 -2.3739 0.0 0
M  V30 24 O 2.598 -2.25 0.0 0
M  V30 25 C 1.299 0.0 0.0 0
M  V30 26 C 0.0 -0.75 0.0 0
M  V30 27 C -1.299 0.0 0.0 0
M  V30 28 C 0.0 -2.25 0.0 0
M  V30 29 C -2.598 -0.75 0.0 0
M  V30 30 C -1.299 -3.0 0.0 0
M  V30 31 O -3.8971 0.0 0.0 0
M  V30 32 C -2.598 -2.25 0.0 0
M  V30 33 C -5.1961 -0.75 0.0 0
M  V30 END ATOM
M  V30 BEGIN BOND
M  V30 1 2 1 2
M  V30 2 2 1 3
M  V30 3 1 1 4
M  V30 4 1 1 5
M  V30 5 1 4 6
M  V30 6 2 5 7
M  V30 7 1 5 8
M  V30 8 2 6 9
M  V30 9 1 6 10
M  V30 10 1 7 11
M  V30 11 2 8 12
M  V30 12 1 9 13
M  V30 13 2 10 14
M  V30 14 2 11 15
M  V30 15 1 11 16
M  V30 16 1 13 17
M  V30 17 1 15 18
M  V30 18 1 16 19
M  V30 19 1 17 20
M  V30 20 1 17 21
M  V30 21 1 19 22
M  V30 22 1 20 23
M  V30 23 2 22 24
M  V30 24 1 22 25
M  V30 25 1 25 26
M  V30 26 2 26 27
M  V30 27 1 26 28
M  V30 28 1 27 29
M  V30 29 2 28 30
M  V30 30 1 29 31
M  V30 31 2 29 32
M  V30 32 1 31 33
M  V30 33 1 12 15
M  V30 34 1 13 14
M  V30 35 1 18 19
M  V30 36 1 21 23
M  V30 37 1 30 32
M  V30 END BOND
M  V30 END CTAB
M  END
>  <Molecule ChEMBL ID>
CHEMBL3613709

>  <Smiles>
COc1cccc(CC(=O)N2Cc3ccc(S(=O)(=O)Nc4cnn(C5CCC5)n4)cc3C2)c1

>  <IC50_nM>
4000

>  <Assay Description>
Inhibition of PPARgamma (unknown origin)

$$$$
CHEMBL3959627
Actelion Java MolfileCreator 2.0

  0  0  0  0  0  0              0 V3000
M  V30 BEGIN CTAB
M  V30 COUNTS 33 35 0 0 0
M  V30 BEGIN ATOM
M  V30 1 S 9.0932 0.0 0.0 0
M  V30 2 O 9.8432 1.299 0.0 0
M  V30 3 O 8.3432 1.299 0.0 0
M  V30 4 N 7.7942 -0.75 0.0 0
M  V30 5 C 10.3923 -0.75 0.0 0
M  V30 6 C 6.4951 0.0 0.0 0
M  V30 7 C 10.3923 -2.25 0.0 0
M  V30 8 C 11.6913 0.0 0.0 0
M  V30 9 O 6.4951 1.5 0.0 0
M  V30 10 N 5.1961 -0.75 0.0 0
M  V30 11 C 11.6913 -3.0 0.0 0
M  V30 12 C 12.9903 -0.75 0.0 0
M  V30 13 C 3.8971 0.0 0.0 0
M  V30 14 C 12.9903 -2.25 0.0 0
M  V30 15 C 2.598 -0.75 0.0 0
M  V30 16 N 14.2894 -3.0 0.0 0
M  V30 17 C 1.299 0.0 0.0 0
M  V30 18 C 15.5884 -2.25 0.0 0
M  V30 19 C 0.0 -0.75 0.0 0
M  V30 20 O 15.5884 -0.75 0.0 0
M  V30 21 C 16.8875 -3.0 0.0 0
M  V30 22 N 18.1865 -2.25 0.0 0
M  V30 23 C 19.4855 -3.0 0.0 0
M  V30 24 C 18.1865 -0.75 0.0 0
M  V30 25 O 19.4855 -4.5 0.0 0
M  V30 26 C 20.7846 -2.25 0.0 0
M  V30 27 C 19.4855 0.0 0.0 0
M  V30 28 C 16.8875 0.0 0.0 0
M  V30 29 N 20.7846 -0.75 0.0 0
M  V30 30 C 22.0836 -3.0 0.0 0
M  V30 31 C 19.4855 1.5 0.0 0
M  V30 32 C 16.8875 1.5 0.0 0
M  V30 33 C 18.1865 2.25 0.0 0
M  V30 END ATOM
M  V30 BEGIN BOND
M  V30 1 2 1 2
M  V30 2 2 1 3
M  V30 3 1 1 4
M  V30 4 1 1 5
M  V30 5 1 4 6
M  V30 6 2 5 7
M  V30 7 1 5 8
M  V30 8 2 6 9
M  V30 9 1 6 10
M  V30 10 1 7 11
M  V30 11 2 8 12
M  V30 12 1 10 13
M  V30 13 2 11 14
M  V30 14 1 13 15
M  V30 15 1 14 16
M  V30 16 1 15 17
M  V30 17 1 16 18
M  V30 18 1 17 19
M  V30 19 2 18 20
M  V30 20 1 18 21
M  V30 21 1 21 22
M  V30 22 1 22 23
M  V30 23 1 22 24
M  V30 24 2 23 25
M  V30 25 1 23 26
M  V30 26 2 24 27
M  V30 27 1 24 28
M  V30 28 2 26 29
M  V30 29 1 26 30
M  V30 30 1 27 31
M  V30 31 2 28 32
M  V30 32 2 31 33
M  V30 33 1 12 14
M  V30 34 1 27 29
M  V30 35 1 32 33
M  V30 END BOND
M  V30 END CTAB
M  END
>  <Molecule ChEMBL ID>
CHEMBL3959627

>  <Smiles>
CCCCNC(=O)NS(=O)(=O)c1ccc(NC(=O)Cn2c(=O)c(C)nc3ccccc32)cc1

>  <IC50_nM>
4000

>  <Assay Description>
Displacement of fluormone-PPARgamma green from GST-tagged PPARgamma-LBD (unknown origin) by fluorescence polarization assay

$$$$
CHEMBL477318
Actelion Java MolfileCreator 2.0

  0  0  0  0  0  0              0 V3000
M  V30 BEGIN CTAB
M  V30 COUNTS 32 35 0 0 0
M  V30 BEGIN ATOM
M  V30 1 O 6.9282 -4.5 0.0 0
M  V30 2 C 6.9282 -3.5 0.0 0
M  V30 3 O 7.7942 -3.0 0.0 0
M  V30 4 C 6.0621 -3.0 0.0 0 CFG=1
M  V30 5 C 5.1961 -3.5 0.0 0
M  V30 6 C 6.0621 -1.9999 0.0 0
M  V30 7 C 4.3301 -2.9999 0.0 0
M  V30 8 C 5.1961 -4.5 0.0 0
M  V30 9 C 5.1961 -1.4999 0.0 0
M  V30 10 C 3.4641 -3.4999 0.0 0
M  V30 11 C 4.3301 -4.9999 0.0 0
M  V30 12 C 5.1961 -0.5 0.0 0
M  V30 13 C 4.3301 -1.9999 0.0 0
M  V30 14 C 3.4641 -4.4999 0.0 0
M  V30 15 C 4.3301 0.0 0.0 0
M  V30 16 C 3.4641 -1.5 0.0 0
M  V30 17 C 3.4641 -0.5 0.0 0
M  V30 18 C 2.598 0.0 0.0 0
M  V30 19 C 1.732 -0.5 0.0 0
M  V30 20 C 0.866 0.0 0.0 0
M  V30 21 C 0.0 -0.5 0.0 0
M  V30 22 N -0.9135 -0.0932 0.0 0
M  V30 23 C -0.1045 -1.4945 0.0 0
M  V30 24 C -1.5826 -0.8364 0.0 0
M  V30 25 O -1.0826 -1.7024 0.0 0
M  V30 26 C 0.6386 -2.1636 0.0 0
M  V30 27 C -2.5771 -0.7318 0.0 0
M  V30 28 C -2.9839 0.1816 0.0 0
M  V30 29 C -3.1649 -1.5408 0.0 0
M  V30 30 C -3.9784 0.2861 0.0 0
M  V30 31 C -4.1595 -1.4363 0.0 0
M  V30 32 C -4.5662 -0.5228 0.0 0
M  V30 END ATOM
M  V30 BEGIN BOND
M  V30 1 2 1 2
M  V30 2 1 2 3
M  V30 3 1 2 4
M  V30 4 1 4 5
M  V30 5 1 4 6 CFG=1
M  V30 6 2 5 7
M  V30 7 1 5 8
M  V30 8 1 6 9
M  V30 9 1 7 10
M  V30 10 2 8 11
M  V30 11 2 9 12
M  V30 12 1 9 13
M  V30 13 2 10 14
M  V30 14 1 12 15
M  V30 15 2 13 16
M  V30 16 2 15 17
M  V30 17 1 17 18
M  V30 18 1 18 19
M  V30 19 1 19 20
M  V30 20 1 20 21
M  V30 21 1 21 22
M  V30 22 2 21 23
M  V30 23 2 22 24
M  V30 24 1 23 25
M  V30 25 1 23 26
M  V30 26 1 24 27
M  V30 27 2 27 28
M  V30 28 1 27 29
M  V30 29 1 28 30
M  V30 30 2 29 31
M  V30 31 2 30 32
M  V30 32 1 11 14
M  V30 33 1 16 17
M  V30 34 1 24 25
M  V30 35 1 31 32
M  V30 END BOND
M  V30 BEGIN COLLECTION
M  V30 MDLV30/STERAC1 ATOMS=(1 4)
M  V30 END COLLECTION
M  V30 END CTAB
M  END
>  <Molecule ChEMBL ID>
CHEMBL477318

>  <Smiles>
Cc1oc(-c2ccccc2)nc1CCCc1ccc(CC(C(=O)O)c2ccccc2)cc1

>  <IC50_nM>
4000

>  <Assay Description>
Displacement of [3H]darglitazone from human PPARgamma by scintillation proximity assay

$$$$
CHEMBL3915254
Actelion Java MolfileCreator 2.0

  0  0  0  0  0  0              0 V3000
M  V30 BEGIN CTAB
M  V30 COUNTS 35 38 0 0 0
M  V30 BEGIN ATOM
M  V30 1 S 5.1961 -0.75 0.0 0
M  V30 2 O 4.4461 -2.049 0.0 0
M  V30 3 O 5.9461 -2.049 0.0 0
M  V30 4 N 3.8971 0.0 0.0 0
M  V30 5 C 6.4951 0.0 0.0 0
M  V30 6 C 2.598 -0.75 0.0 0
M  V30 7 C 7.7942 -0.75 0.0 0
M  V30 8 C 6.4951 1.5 0.0 0
M  V30 9 S 2.598 -2.25 0.0 0
M  V30 10 N 1.299 0.0 0.0 0
M  V30 11 C 9.0932 0.0 0.0 0
M  V30 12 C 7.7942 2.25 0.0 0
M  V30 13 C 0.0 -0.75 0.0 0
M  V30 14 C 9.0932 1.5 0.0 0
M  V30 15 C -1.299 0.0 0.0 0
M  V30 16 C 0.0 -2.25 0.0 0
M  V30 17 N 10.3923 2.25 0.0 0
M  V30 18 C -2.598 -0.75 0.0 0
M  V30 19 C -1.299 -3.0 0.0 0
M  V30 20 C 10.3923 3.75 0.0 0
M  V30 21 C -2.598 -2.25 0.0 0
M  V30 22 O 9.0932 4.5 0.0 0
M  V30 23 C 11.6913 4.5 0.0 0
M  V30 24 N 11.6913 6.0 0.0 0
M  V30 25 C 12.9903 6.75 0.0 0
M  V30 26 C 10.3923 6.75 0.0 0
M  V30 27 O 14.2894 6.0 0.0 0
M  V30 28 C 12.9903 8.25 0.0 0
M  V30 29 C 10.3923 8.25 0.0 0
M  V30 30 C 9.0932 6.0 0.0 0
M  V30 31 N 11.6913 9.0 0.0 0
M  V30 32 C 14.2894 9.0 0.0 0
M  V30 33 C 9.0932 9.0 0.0 0
M  V30 34 C 7.7942 6.75 0.0 0
M  V30 35 C 7.7942 8.25 0.0 0
M  V30 END ATOM
M  V30 BEGIN BOND
M  V30 1 2 1 2
M  V30 2 2 1 3
M  V30 3 1 1 4
M  V30 4 1 1 5
M  V30 5 1 4 6
M  V30 6 2 5 7
M  V30 7 1 5 8
M  V30 8 2 6 9
M  V30 9 1 6 10
M  V30 10 1 7 11
M  V30 11 2 8 12
M  V30 12 1 10 13
M  V30 13 2 11 14
M  V30 14 1 13 15
M  V30 15 1 13 16
M  V30 16 1 14 17
M  V30 17 1 15 18
M  V30 18 1 16 19
M  V30 19 1 17 20
M  V30 20 1 18 21
M  V30 21 2 20 22
M  V30 22 1 20 23
M  V30 23 1 23 24
M  V30 24 1 24 25
M  V30 25 1 24 26
M  V30 26 2 25 27
M  V30 27 1 25 28
M  V30 28 2 26 29
M  V30 29 1 26 30
M  V30 30 2 28 31
M  V30 31 1 28 32
M  V30 32 1 29 33
M  V30 33 2 30 34
M  V30 34 2 33 35
M  V30 35 1 12 14
M  V30 36 1 19 21
M  V30 37 1 29 31
M  V30 38 1 34 35
M  V30 END BOND
M  V30 END CTAB
M  END
>  <Molecule ChEMBL ID>
CHEMBL3915254

>  <Smiles>
Cc1nc2ccccc2n(CC(=O)Nc2ccc(S(=O)(=O)NC(=S)NC3CCCCC3)cc2)c1=O

>  <IC50_nM>
4000

>  <Assay Description>
Displacement of fluormone-PPARgamma green from GST-tagged PPARgamma-LBD (unknown origin) by fluorescence polarization assay

$$$$
CHEMBL3899514
Actelion Java MolfileCreator 2.0

  0  0  0  0  0  0              0 V3000
M  V30 BEGIN CTAB
M  V30 COUNTS 35 38 0 0 0
M  V30 BEGIN ATOM
M  V30 1 S 5.1961 -0.75 0.0 0
M  V30 2 O 4.4461 -2.049 0.0 0
M  V30 3 O 5.9461 -2.049 0.0 0
M  V30 4 N 3.8971 0.0 0.0 0
M  V30 5 C 6.4951 0.0 0.0 0
M  V30 6 C 2.598 -0.75 0.0 0
M  V30 7 C 7.7942 -0.75 0.0 0
M  V30 8 C 6.4951 1.5 0.0 0
M  V30 9 O 2.598 -2.25 0.0 0
M  V30 10 N 1.299 0.0 0.0 0
M  V30 11 C 9.0932 0.0 0.0 0
M  V30 12 C 7.7942 2.25 0.0 0
M  V30 13 C 0.0 -0.75 0.0 0
M  V30 14 C 9.0932 1.5 0.0 0
M  V30 15 C -1.299 0.0 0.0 0
M  V30 16 C 0.0 -2.25 0.0 0
M  V30 17 N 10.3923 2.25 0.0 0
M  V30 18 C -2.598 -0.75 0.0 0
M  V30 19 C -1.299 -3.0 0.0 0
M  V30 20 C 10.3923 3.75 0.0 0
M  V30 21 C -2.598 -2.25 0.0 0
M  V30 22 O 9.0932 4.5 0.0 0
M  V30 23 C 11.6913 4.5 0.0 0
M  V30 24 N 11.6913 6.0 0.0 0
M  V30 25 C 12.9903 6.75 0.0 0
M  V30 26 C 10.3923 6.75 0.0 0
M  V30 27 O 14.2894 6.0 0.0 0
M  V30 28 C 12.9903 8.25 0.0 0
M  V30 29 C 10.3923 8.25 0.0 0
M  V30 30 C 9.0932 6.0 0.0 0
M  V30 31 N 11.6913 9.0 0.0 0
M  V30 32 C 14.2894 9.0 0.0 0
M  V30 33 C 9.0932 9.0 0.0 0
M  V30 34 C 7.7942 6.75 0.0 0
M  V30 35 C 7.7942 8.25 0.0 0
M  V30 END ATOM
M  V30 BEGIN BOND
M  V30 1 2 1 2
M  V30 2 2 1 3
M  V30 3 1 1 4
M  V30 4 1 1 5
M  V30 5 1 4 6
M  V30 6 2 5 7
M  V30 7 1 5 8
M  V30 8 2 6 9
M  V30 9 1 6 10
M  V30 10 1 7 11
M  V30 11 2 8 12
M  V30 12 1 10 13
M  V30 13 2 11 14
M  V30 14 1 13 15
M  V30 15 1 13 16
M  V30 16 1 14 17
M  V30 17 1 15 18
M  V30 18 1 16 19
M  V30 19 1 17 20
M  V30 20 1 18 21
M  V30 21 2 20 22
M  V30 22 1 20 23
M  V30 23 1 23 24
M  V30 24 1 24 25
M  V30 25 1 24 26
M  V30 26 2 25 27
M  V30 27 1 25 28
M  V30 28 2 26 29
M  V30 29 1 26 30
M  V30 30 2 28 31
M  V30 31 1 28 32
M  V30 32 1 29 33
M  V30 33 2 30 34
M  V30 34 2 33 35
M  V30 35 1 12 14
M  V30 36 1 19 21
M  V30 37 1 29 31
M  V30 38 1 34 35
M  V30 END BOND
M  V30 END CTAB
M  END
>  <Molecule ChEMBL ID>
CHEMBL3899514

>  <Smiles>
Cc1nc2ccccc2n(CC(=O)Nc2ccc(S(=O)(=O)NC(=O)NC3CCCCC3)cc2)c1=O

>  <IC50_nM>
4000

>  <Assay Description>
Displacement of fluormone-PPARgamma green from GST-tagged PPARgamma-LBD (unknown origin) by fluorescence polarization assay

$$$$
CHEMBL3678144
Actelion Java MolfileCreator 2.0

  0  0  0  0  0  0              0 V3000
M  V30 BEGIN CTAB
M  V30 COUNTS 40 43 0 0 0
M  V30 BEGIN ATOM
M  V30 1 Cl 6.0621 -2.0 0.0 0
M  V30 2 C 6.9282 -1.5 0.0 0
M  V30 3 C 7.7942 -2.0 0.0 0
M  V30 4 C 6.9282 -0.5 0.0 0
M  V30 5 O 7.7942 -3.0 0.0 0
M  V30 6 C 8.6602 -1.5 0.0 0
M  V30 7 C 7.7942 0.0 0.0 0
M  V30 8 C 6.0621 0.0 0.0 0
M  V30 9 C 8.6602 -3.5 0.0 0 CFG=2
M  V30 10 C 8.6602 -0.5 0.0 0
M  V30 11 N 6.0621 0.9999 0.0 0
M  V30 12 C 8.6602 -4.5 0.0 0
M  V30 13 C 9.5262 -3.0 0.0 0
M  V30 14 C 6.8711 1.5877 0.0 0
M  V30 15 C 5.2531 1.5877 0.0 0
M  V30 16 O 7.7942 -5.0 0.0 0
M  V30 17 O 9.5262 -5.0 0.0 0
M  V30 18 C 6.5621 2.5388 0.0 0
M  V30 19 C 7.8493 1.3798 0.0 0
M  V30 20 C 5.5621 2.5388 0.0 0
M  V30 21 C 4.3021 1.2787 0.0 0
M  V30 22 C 7.2313 3.2819 0.0 0
M  V30 23 C 8.5184 2.123 0.0 0
M  V30 24 C 4.9743 3.3478 0.0 0
M  V30 25 C 8.2094 3.074 0.0 0
M  V30 26 C 8.8785 3.8172 0.0 0
M  V30 27 O 9.8567 3.6093 0.0 0
M  V30 28 N 8.5695 4.7682 0.0 0
M  V30 29 C 9.2387 5.5114 0.0 0 CFG=2
M  V30 30 C 10.2168 5.3035 0.0 0
M  V30 31 C 8.9296 6.4624 0.0 0
M  V30 32 C 10.5258 4.3524 0.0 0
M  V30 33 C 10.8859 6.0466 0.0 0
M  V30 34 C 11.504 4.1445 0.0 0
M  V30 35 C 11.8641 5.8387 0.0 0
M  V30 36 C 12.1731 4.8876 0.0 0
M  V30 37 C 13.1512 4.6797 0.0 0
M  V30 38 C 13.3592 5.6579 0.0 0
M  V30 39 C 14.1294 4.4718 0.0 0
M  V30 40 C 12.9433 3.7016 0.0 0
M  V30 END ATOM
M  V30 BEGIN BOND
M  V30 1 1 1 2
M  V30 2 2 2 3
M  V30 3 1 2 4
M  V30 4 1 3 5
M  V30 5 1 3 6
M  V30 6 2 4 7
M  V30 7 1 4 8
M  V30 8 1 5 9
M  V30 9 2 6 10
M  V30 10 1 8 11
M  V30 11 1 9 12
M  V30 12 1 9 13 CFG=1
M  V30 13 1 11 14
M  V30 14 1 11 15
M  V30 15 2 12 16
M  V30 16 1 12 17
M  V30 17 2 14 18
M  V30 18 1 14 19
M  V30 19 2 15 20
M  V30 20 1 15 21
M  V30 21 1 18 22
M  V30 22 2 19 23
M  V30 23 1 20 24
M  V30 24 2 22 25
M  V30 25 1 25 26
M  V30 26 2 26 27
M  V30 27 1 26 28
M  V30 28 1 28 29
M  V30 29 1 29 30
M  V30 30 1 29 31 CFG=1
M  V30 31 2 30 32
M  V30 32 1 30 33
M  V30 33 1 32 34
M  V30 34 2 33 35
M  V30 35 2 34 36
M  V30 36 1 36 37
M  V30 37 1 37 38
M  V30 38 1 37 39
M  V30 39 1 37 40
M  V30 40 1 7 10
M  V30 41 1 18 20
M  V30 42 1 23 25
M  V30 43 1 35 36
M  V30 END BOND
M  V30 BEGIN COLLECTION
M  V30 MDLV30/STEABS ATOMS=(2 9 29)
M  V30 END COLLECTION
M  V30 END CTAB
M  END
>  <Molecule ChEMBL ID>
CHEMBL3678144

>  <Smiles>
Cc1c(C)n(Cc2cccc(O[C@@H](C)C(=O)O)c2Cl)c2ccc(C(=O)N[C@@H](C)c3ccc(C(C)(C)C)cc3)cc12

>  <IC50_nM>
4000

>  <Assay Description>
Lanthascreen Competitive Binding Assay: The assay was performed according to manufacturer protocol. A mixture of 5 nM GST-PPARG-LBD, 5 nM Tb-GST-antibody, 5 nM Fluormone Pan- PPAR Green, and serial dilutions of the experimental compound, beginning at 10 ׬� downwards, was added to wells of black 384-well low- volume plates (Greiner) to a total volume of 18 xL. All dilutions were made in TR-FRET assay buffer C. DMSO at 2% final concentration was used as a no-ligand control. Experiment was performed in triplicate, and incubated for 2 hours in the dark prior to assay read in Perkin Elmer ViewLux ultra HTS microplate reader. FRET signal was measured by excitation at 340 nm and emission at 520 nm for fluorescein and 490 nm for terbium.

$$$$
CHEMBL3896121
Actelion Java MolfileCreator 2.0

  0  0  0  0  0  0              0 V3000
M  V30 BEGIN CTAB
M  V30 COUNTS 35 38 0 0 0
M  V30 BEGIN ATOM
M  V30 1 S 5.1961 -0.75 0.0 0
M  V30 2 O 4.4461 -2.049 0.0 0
M  V30 3 O 5.9461 -2.049 0.0 0
M  V30 4 N 3.8971 0.0 0.0 0
M  V30 5 C 6.4951 0.0 0.0 0
M  V30 6 C 2.598 -0.75 0.0 0
M  V30 7 C 7.7942 -0.75 0.0 0
M  V30 8 C 6.4951 1.5 0.0 0
M  V30 9 O 2.598 -2.25 0.0 0
M  V30 10 N 1.299 0.0 0.0 0
M  V30 11 C 9.0932 0.0 0.0 0
M  V30 12 C 7.7942 2.25 0.0 0
M  V30 13 C 0.0 -0.75 0.0 0
M  V30 14 C 9.0932 1.5 0.0 0
M  V30 15 C -1.299 0.0 0.0 0
M  V30 16 C 0.0 -2.25 0.0 0
M  V30 17 N 10.3923 2.25 0.0 0
M  V30 18 C -2.598 -0.75 0.0 0
M  V30 19 C -1.299 -3.0 0.0 0
M  V30 20 C 10.3923 3.75 0.0 0
M  V30 21 C -2.598 -2.25 0.0 0
M  V30 22 O 9.0932 4.5 0.0 0
M  V30 23 C 11.6913 4.5 0.0 0
M  V30 24 N 11.6913 6.0 0.0 0
M  V30 25 C 12.9903 6.75 0.0 0
M  V30 26 C 10.3923 6.75 0.0 0
M  V30 27 O 14.2894 6.0 0.0 0
M  V30 28 C 12.9903 8.25 0.0 0
M  V30 29 C 10.3923 8.25 0.0 0
M  V30 30 C 9.0932 6.0 0.0 0
M  V30 31 N 11.6913 9.0 0.0 0
M  V30 32 C 14.2894 9.0 0.0 0
M  V30 33 C 9.0932 9.0 0.0 0
M  V30 34 C 7.7942 6.75 0.0 0
M  V30 35 C 7.7942 8.25 0.0 0
M  V30 END ATOM
M  V30 BEGIN BOND
M  V30 1 2 1 2
M  V30 2 2 1 3
M  V30 3 1 1 4
M  V30 4 1 1 5
M  V30 5 1 4 6
M  V30 6 2 5 7
M  V30 7 1 5 8
M  V30 8 2 6 9
M  V30 9 1 6 10
M  V30 10 1 7 11
M  V30 11 2 8 12
M  V30 12 1 10 13
M  V30 13 2 11 14
M  V30 14 2 13 15
M  V30 15 1 13 16
M  V30 16 1 14 17
M  V30 17 1 15 18
M  V30 18 2 16 19
M  V30 19 1 17 20
M  V30 20 2 18 21
M  V30 21 2 20 22
M  V30 22 1 20 23
M  V30 23 1 23 24
M  V30 24 1 24 25
M  V30 25 1 24 26
M  V30 26 2 25 27
M  V30 27 1 25 28
M  V30 28 2 26 29
M  V30 29 1 26 30
M  V30 30 2 28 31
M  V30 31 1 28 32
M  V30 32 1 29 33
M  V30 33 2 30 34
M  V30 34 2 33 35
M  V30 35 1 12 14
M  V30 36 1 19 21
M  V30 37 1 29 31
M  V30 38 1 34 35
M  V30 END BOND
M  V30 END CTAB
M  END
>  <Molecule ChEMBL ID>
CHEMBL3896121

>  <Smiles>
Cc1nc2ccccc2n(CC(=O)Nc2ccc(S(=O)(=O)NC(=O)Nc3ccccc3)cc2)c1=O

>  <IC50_nM>
4000

>  <Assay Description>
Displacement of fluormone-PPARgamma green from GST-tagged PPARgamma-LBD (unknown origin) by fluorescence polarization assay

$$$$
CHEMBL3978392
Actelion Java MolfileCreator 2.0

  0  0  0  0  0  0              0 V3000
M  V30 BEGIN CTAB
M  V30 COUNTS 35 38 0 0 0
M  V30 BEGIN ATOM
M  V30 1 S 5.1961 -0.75 0.0 0
M  V30 2 O 4.4461 -2.049 0.0 0
M  V30 3 O 5.9461 -2.049 0.0 0
M  V30 4 N 3.8971 0.0 0.0 0
M  V30 5 C 6.4951 0.0 0.0 0
M  V30 6 C 2.598 -0.75 0.0 0
M  V30 7 C 7.7942 -0.75 0.0 0
M  V30 8 C 6.4951 1.5 0.0 0
M  V30 9 S 2.598 -2.25 0.0 0
M  V30 10 N 1.299 0.0 0.0 0
M  V30 11 C 9.0932 0.0 0.0 0
M  V30 12 C 7.7942 2.25 0.0 0
M  V30 13 C 0.0 -0.75 0.0 0
M  V30 14 C 9.0932 1.5 0.0 0
M  V30 15 C -1.299 0.0 0.0 0
M  V30 16 C 0.0 -2.25 0.0 0
M  V30 17 N 10.3923 2.25 0.0 0
M  V30 18 C -2.598 -0.75 0.0 0
M  V30 19 C -1.299 -3.0 0.0 0
M  V30 20 C 10.3923 3.75 0.0 0
M  V30 21 C -2.598 -2.25 0.0 0
M  V30 22 O 9.0932 4.5 0.0 0
M  V30 23 C 11.6913 4.5 0.0 0
M  V30 24 N 11.6913 6.0 0.0 0
M  V30 25 C 12.9903 6.75 0.0 0
M  V30 26 C 10.3923 6.75 0.0 0
M  V30 27 O 14.2894 6.0 0.0 0
M  V30 28 C 12.9903 8.25 0.0 0
M  V30 29 C 10.3923 8.25 0.0 0
M  V30 30 C 9.0932 6.0 0.0 0
M  V30 31 N 11.6913 9.0 0.0 0
M  V30 32 C 14.2894 9.0 0.0 0
M  V30 33 C 9.0932 9.0 0.0 0
M  V30 34 C 7.7942 6.75 0.0 0
M  V30 35 C 7.7942 8.25 0.0 0
M  V30 END ATOM
M  V30 BEGIN BOND
M  V30 1 2 1 2
M  V30 2 2 1 3
M  V30 3 1 1 4
M  V30 4 1 1 5
M  V30 5 1 4 6
M  V30 6 2 5 7
M  V30 7 1 5 8
M  V30 8 2 6 9
M  V30 9 1 6 10
M  V30 10 1 7 11
M  V30 11 2 8 12
M  V30 12 1 10 13
M  V30 13 2 11 14
M  V30 14 2 13 15
M  V30 15 1 13 16
M  V30 16 1 14 17
M  V30 17 1 15 18
M  V30 18 2 16 19
M  V30 19 1 17 20
M  V30 20 2 18 21
M  V30 21 2 20 22
M  V30 22 1 20 23
M  V30 23 1 23 24
M  V30 24 1 24 25
M  V30 25 1 24 26
M  V30 26 2 25 27
M  V30 27 1 25 28
M  V30 28 2 26 29
M  V30 29 1 26 30
M  V30 30 2 28 31
M  V30 31 1 28 32
M  V30 32 1 29 33
M  V30 33 2 30 34
M  V30 34 2 33 35
M  V30 35 1 12 14
M  V30 36 1 19 21
M  V30 37 1 29 31
M  V30 38 1 34 35
M  V30 END BOND
M  V30 END CTAB
M  END
>  <Molecule ChEMBL ID>
CHEMBL3978392

>  <Smiles>
Cc1nc2ccccc2n(CC(=O)Nc2ccc(S(=O)(=O)NC(=S)Nc3ccccc3)cc2)c1=O

>  <IC50_nM>
4000

>  <Assay Description>
Displacement of fluormone-PPARgamma green from GST-tagged PPARgamma-LBD (unknown origin) by fluorescence polarization assay

$$$$
CHEMBL1090212
Actelion Java MolfileCreator 2.0

  0  0  0  0  0  0              0 V3000
M  V30 BEGIN CTAB
M  V30 COUNTS 37 40 0 0 0
M  V30 BEGIN ATOM
M  V30 1 Cl 3.5175 15.4123 0.0 0
M  V30 2 C 4.3991 14.1988 0.0 0
M  V30 3 C 3.789 12.8285 0.0 0
M  V30 4 C 5.8909 14.3556 0.0 0
M  V30 5 C 4.6707 11.6149 0.0 0
M  V30 6 C 6.7726 13.1421 0.0 0
M  V30 7 C 6.1625 11.7717 0.0 0
M  V30 8 C 7.0442 10.5582 0.0 0
M  V30 9 S 6.5807 9.1316 0.0 0
M  V30 10 N 8.5442 10.5582 0.0 0
M  V30 11 C 7.7942 8.25 0.0 0
M  V30 12 C 9.0077 9.1316 0.0 0
M  V30 13 C 7.7942 6.75 0.0 0
M  V30 14 C 10.4343 8.6681 0.0 0
M  V30 15 O 6.4951 6.0 0.0 0
M  V30 16 C 6.4951 4.5 0.0 0
M  V30 17 C 5.1961 3.75 0.0 0
M  V30 18 C 7.7942 3.75 0.0 0
M  V30 19 C 5.1961 2.25 0.0 0
M  V30 20 C 7.7942 2.25 0.0 0
M  V30 21 C 6.4951 1.5 0.0 0
M  V30 22 C 3.8971 1.5 0.0 0
M  V30 23 N 3.8971 0.0 0.0 0
M  V30 24 C 5.1961 -0.75 0.0 0
M  V30 25 C 2.598 -0.75 0.0 0
M  V30 26 O 5.1961 -2.25 0.0 0
M  V30 27 O 6.4951 0.0 0.0 0
M  V30 28 C 1.299 0.0 0.0 0
M  V30 29 C 7.7942 -0.75 0.0 0
M  V30 30 O 1.299 1.5 0.0 0
M  V30 31 O 0.0 -0.75 0.0 0
M  V30 32 C 7.7942 -2.25 0.0 0
M  V30 33 C 9.0932 0.0 0.0 0
M  V30 34 C 9.0932 -3.0 0.0 0
M  V30 35 C 10.3923 -0.75 0.0 0
M  V30 36 C 10.3923 -2.25 0.0 0
M  V30 37 C 11.6913 -3.0 0.0 0
M  V30 END ATOM
M  V30 BEGIN BOND
M  V30 1 1 1 2
M  V30 2 2 2 3
M  V30 3 1 2 4
M  V30 4 1 3 5
M  V30 5 2 4 6
M  V30 6 2 5 7
M  V30 7 1 7 8
M  V30 8 1 8 9
M  V30 9 2 8 10
M  V30 10 1 9 11
M  V30 11 1 10 12
M  V30 12 1 11 13
M  V30 13 1 12 14
M  V30 14 1 13 15
M  V30 15 1 15 16
M  V30 16 2 16 17
M  V30 17 1 16 18
M  V30 18 1 17 19
M  V30 19 2 18 20
M  V30 20 2 19 21
M  V30 21 1 19 22
M  V30 22 1 22 23
M  V30 23 1 23 24
M  V30 24 1 23 25
M  V30 25 2 24 26
M  V30 26 1 24 27
M  V30 27 1 25 28
M  V30 28 1 27 29
M  V30 29 2 28 30
M  V30 30 1 28 31
M  V30 31 2 29 32
M  V30 32 1 29 33
M  V30 33 1 32 34
M  V30 34 2 33 35
M  V30 35 2 34 36
M  V30 36 1 36 37
M  V30 37 1 6 7
M  V30 38 2 11 12
M  V30 39 1 20 21
M  V30 40 1 35 36
M  V30 END BOND
M  V30 END CTAB
M  END
>  <Molecule ChEMBL ID>
CHEMBL1090212

>  <Smiles>
Cc1ccc(OC(=O)N(CC(=O)O)Cc2cccc(OCc3sc(-c4ccc(Cl)cc4)nc3C)c2)cc1

>  <IC50_nM>
4057

>  <Assay Description>
Binding affinity to human His-tagged PPARgamma LBD (Q203-Y477) expressed in Escherichia coli BL21 (DE3) by fluorescence polarization assay

$$$$
CHEMBL2037079
Actelion Java MolfileCreator 2.0

  0  0  0  0  0  0              0 V3000
M  V30 BEGIN CTAB
M  V30 COUNTS 31 33 0 0 0
M  V30 BEGIN ATOM
M  V30 1 Cl 6.0621 1.0 0.0 0
M  V30 2 C 6.0621 0.0 0.0 0
M  V30 3 C 5.1961 -0.5 0.0 0
M  V30 4 C 6.9282 -0.4999 0.0 0
M  V30 5 O 4.3301 0.0 0.0 0
M  V30 6 C 5.1961 -1.4999 0.0 0
M  V30 7 C 6.9282 -1.4999 0.0 0
M  V30 8 C 3.4641 -0.5 0.0 0
M  V30 9 C 6.0621 -1.9999 0.0 0
M  V30 10 O 7.7942 -1.9999 0.0 0
M  V30 11 C 2.598 0.0 0.0 0
M  V30 12 C 7.7942 -2.9999 0.0 0
M  V30 13 C 1.732 -0.5 0.0 0
M  V30 14 C 8.6602 -3.4999 0.0 0
M  V30 15 O 0.866 0.0 0.0 0
M  V30 16 F 9.1602 -2.6339 0.0 0
M  V30 17 F 9.5262 -3.9999 0.0 0
M  V30 18 F 8.1602 -4.366 0.0 0
M  V30 19 C 0.0 -0.5 0.0 0
M  V30 20 C -0.866 0.0 0.0 0
M  V30 21 C 0.0 -1.4999 0.0 0
M  V30 22 C -1.732 -0.4999 0.0 0
M  V30 23 C -0.866 -1.9999 0.0 0
M  V30 24 O -2.598 0.0 0.0 0
M  V30 25 C -1.732 -1.4999 0.0 0
M  V30 26 C -3.4641 -0.4999 0.0 0 CFG=2
M  V30 27 C -2.598 -1.9999 0.0 0
M  V30 28 C -4.3301 0.0 0.0 0
M  V30 29 C -3.4641 -1.4999 0.0 0
M  V30 30 O -4.3301 1.0 0.0 0
M  V30 31 O -5.1961 -0.4999 0.0 0
M  V30 END ATOM
M  V30 BEGIN BOND
M  V30 1 1 1 2
M  V30 2 2 2 3
M  V30 3 1 2 4
M  V30 4 1 3 5
M  V30 5 1 3 6
M  V30 6 2 4 7
M  V30 7 1 5 8
M  V30 8 2 6 9
M  V30 9 1 7 10
M  V30 10 1 8 11
M  V30 11 1 10 12
M  V30 12 1 11 13
M  V30 13 1 12 14
M  V30 14 1 13 15
M  V30 15 1 14 16
M  V30 16 1 14 17
M  V30 17 1 14 18
M  V30 18 1 15 19
M  V30 19 2 19 20
M  V30 20 1 19 21
M  V30 21 1 20 22
M  V30 22 2 21 23
M  V30 23 1 22 24
M  V30 24 2 22 25
M  V30 25 1 24 26
M  V30 26 1 25 27
M  V30 27 1 26 28 CFG=1
M  V30 28 1 26 29
M  V30 29 2 28 30
M  V30 30 1 28 31
M  V30 31 1 7 9
M  V30 32 1 23 25
M  V30 33 1 27 29
M  V30 END BOND
M  V30 BEGIN COLLECTION
M  V30 MDLV30/STEABS ATOMS=(1 26)
M  V30 END COLLECTION
M  V30 END CTAB
M  END
>  <Molecule ChEMBL ID>
CHEMBL2037079

>  <Smiles>
O=C(O)[C@@H]1CCc2ccc(OCCCOc3ccc(OCC(F)(F)F)cc3Cl)cc2O1

>  <IC50_nM>
4100

>  <Assay Description>
Agonist activity at PPARgamma

$$$$
CHEMBL180912
Actelion Java MolfileCreator 2.0

  0  0  0  0  0  0              0 V3000
M  V30 BEGIN CTAB
M  V30 COUNTS 31 33 0 0 0
M  V30 BEGIN ATOM
M  V30 1 Cl 6.0621 1.0 0.0 0
M  V30 2 C 6.0621 0.0 0.0 0
M  V30 3 C 5.1961 -0.5 0.0 0
M  V30 4 C 6.9282 -0.4999 0.0 0
M  V30 5 O 4.3301 0.0 0.0 0
M  V30 6 C 5.1961 -1.4999 0.0 0
M  V30 7 C 6.9282 -1.4999 0.0 0
M  V30 8 C 3.4641 -0.5 0.0 0
M  V30 9 C 6.0621 -1.9999 0.0 0
M  V30 10 O 7.7942 -1.9999 0.0 0
M  V30 11 C 2.598 0.0 0.0 0
M  V30 12 C 7.7942 -2.9999 0.0 0
M  V30 13 C 1.732 -0.5 0.0 0
M  V30 14 C 8.6602 -3.4999 0.0 0
M  V30 15 O 0.866 0.0 0.0 0
M  V30 16 F 9.1602 -2.6339 0.0 0
M  V30 17 F 9.5262 -3.9999 0.0 0
M  V30 18 F 8.1602 -4.366 0.0 0
M  V30 19 C 0.0 -0.5 0.0 0
M  V30 20 C -0.866 0.0 0.0 0
M  V30 21 C 0.0 -1.4999 0.0 0
M  V30 22 C -1.732 -0.4999 0.0 0
M  V30 23 C -0.866 -1.9999 0.0 0
M  V30 24 O -2.598 0.0 0.0 0
M  V30 25 C -1.732 -1.4999 0.0 0
M  V30 26 C -3.4641 -0.4999 0.0 0 CFG=2
M  V30 27 C -2.598 -1.9999 0.0 0
M  V30 28 C -4.3301 0.0 0.0 0
M  V30 29 C -3.4641 -1.4999 0.0 0
M  V30 30 O -4.3301 1.0 0.0 0
M  V30 31 O -5.1961 -0.4999 0.0 0
M  V30 END ATOM
M  V30 BEGIN BOND
M  V30 1 1 1 2
M  V30 2 2 2 3
M  V30 3 1 2 4
M  V30 4 1 3 5
M  V30 5 1 3 6
M  V30 6 2 4 7
M  V30 7 1 5 8
M  V30 8 2 6 9
M  V30 9 1 7 10
M  V30 10 1 8 11
M  V30 11 1 10 12
M  V30 12 1 11 13
M  V30 13 1 12 14
M  V30 14 1 13 15
M  V30 15 1 14 16
M  V30 16 1 14 17
M  V30 17 1 14 18
M  V30 18 1 15 19
M  V30 19 2 19 20
M  V30 20 1 19 21
M  V30 21 1 20 22
M  V30 22 2 21 23
M  V30 23 1 22 24
M  V30 24 2 22 25
M  V30 25 1 24 26
M  V30 26 1 25 27
M  V30 27 1 26 28 CFG=1
M  V30 28 1 26 29
M  V30 29 2 28 30
M  V30 30 1 28 31
M  V30 31 1 7 9
M  V30 32 1 23 25
M  V30 33 1 27 29
M  V30 END BOND
M  V30 BEGIN COLLECTION
M  V30 MDLV30/STERAC1 ATOMS=(1 26)
M  V30 END COLLECTION
M  V30 END CTAB
M  END
>  <Molecule ChEMBL ID>
CHEMBL180912

>  <Smiles>
O=C(O)C1CCc2ccc(OCCCOc3ccc(OCC(F)(F)F)cc3Cl)cc2O1

>  <IC50_nM>
4100

>  <Assay Description>
In vitro binding affinity against human PPARgamma

$$$$
CHEMBL8659
Actelion Java MolfileCreator 2.0

  0  0  0  0  0  0              0 V3000
M  V30 BEGIN CTAB
M  V30 COUNTS 20 19 0 0 0
M  V30 BEGIN ATOM
M  V30 1 O 15.5884 -0.5 0.0 0
M  V30 2 C 14.7224 0.0 0.0 0
M  V30 3 O 14.7224 1.0 0.0 0
M  V30 4 C 13.8564 -0.5 0.0 0
M  V30 5 C 12.9903 0.0 0.0 0
M  V30 6 C 12.1243 -0.5 0.0 0
M  V30 7 C 11.2583 0.0 0.0 0
M  V30 8 C 10.3923 -0.5 0.0 0
M  V30 9 C 9.5262 0.0 0.0 0
M  V30 10 C 8.6602 -0.5 0.0 0
M  V30 11 C 7.7942 0.0 0.0 0
M  V30 12 C 6.9282 -0.5 0.0 0
M  V30 13 C 6.9282 -1.4999 0.0 0
M  V30 14 C 6.0621 -2.0 0.0 0
M  V30 15 C 6.0621 -3.0 0.0 0
M  V30 16 C 5.1961 -3.5 0.0 0
M  V30 17 C 5.1961 -4.5 0.0 0
M  V30 18 C 4.3301 -5.0 0.0 0
M  V30 19 C 4.3301 -6.0 0.0 0
M  V30 20 C 3.4641 -6.5 0.0 0
M  V30 END ATOM
M  V30 BEGIN BOND
M  V30 1 2 1 2
M  V30 2 1 2 3
M  V30 3 1 2 4
M  V30 4 1 4 5
M  V30 5 1 5 6
M  V30 6 1 6 7
M  V30 7 1 7 8
M  V30 8 1 8 9
M  V30 9 1 9 10
M  V30 10 1 10 11
M  V30 11 2 11 12
M  V30 12 1 12 13
M  V30 13 1 13 14
M  V30 14 1 14 15
M  V30 15 1 15 16
M  V30 16 1 16 17
M  V30 17 1 17 18
M  V30 18 1 18 19
M  V30 19 1 19 20
M  V30 END BOND
M  V30 END CTAB
M  END
>  <Molecule ChEMBL ID>
CHEMBL8659

>  <Smiles>
CCCCCCCC/C=C\CCCCCCCC(=O)O

>  <IC50_nM>
4100

>  <Assay Description>
Displacement of [3H]BRL49653 from Homo sapiens (human) PPARgamma receptor by scintillation proximity assay

$$$$
CHEMBL2037079
Actelion Java MolfileCreator 2.0

  0  0  0  0  0  0              0 V3000
M  V30 BEGIN CTAB
M  V30 COUNTS 31 33 0 0 0
M  V30 BEGIN ATOM
M  V30 1 Cl 6.0621 1.0 0.0 0
M  V30 2 C 6.0621 0.0 0.0 0
M  V30 3 C 5.1961 -0.5 0.0 0
M  V30 4 C 6.9282 -0.4999 0.0 0
M  V30 5 O 4.3301 0.0 0.0 0
M  V30 6 C 5.1961 -1.4999 0.0 0
M  V30 7 C 6.9282 -1.4999 0.0 0
M  V30 8 C 3.4641 -0.5 0.0 0
M  V30 9 C 6.0621 -1.9999 0.0 0
M  V30 10 O 7.7942 -1.9999 0.0 0
M  V30 11 C 2.598 0.0 0.0 0
M  V30 12 C 7.7942 -2.9999 0.0 0
M  V30 13 C 1.732 -0.5 0.0 0
M  V30 14 C 8.6602 -3.4999 0.0 0
M  V30 15 O 0.866 0.0 0.0 0
M  V30 16 F 9.1602 -2.6339 0.0 0
M  V30 17 F 9.5262 -3.9999 0.0 0
M  V30 18 F 8.1602 -4.366 0.0 0
M  V30 19 C 0.0 -0.5 0.0 0
M  V30 20 C -0.866 0.0 0.0 0
M  V30 21 C 0.0 -1.4999 0.0 0
M  V30 22 C -1.732 -0.4999 0.0 0
M  V30 23 C -0.866 -1.9999 0.0 0
M  V30 24 O -2.598 0.0 0.0 0
M  V30 25 C -1.732 -1.4999 0.0 0
M  V30 26 C -3.4641 -0.4999 0.0 0 CFG=2
M  V30 27 C -2.598 -1.9999 0.0 0
M  V30 28 C -4.3301 0.0 0.0 0
M  V30 29 C -3.4641 -1.4999 0.0 0
M  V30 30 O -4.3301 1.0 0.0 0
M  V30 31 O -5.1961 -0.4999 0.0 0
M  V30 END ATOM
M  V30 BEGIN BOND
M  V30 1 1 1 2
M  V30 2 2 2 3
M  V30 3 1 2 4
M  V30 4 1 3 5
M  V30 5 1 3 6
M  V30 6 2 4 7
M  V30 7 1 5 8
M  V30 8 2 6 9
M  V30 9 1 7 10
M  V30 10 1 8 11
M  V30 11 1 10 12
M  V30 12 1 11 13
M  V30 13 1 12 14
M  V30 14 1 13 15
M  V30 15 1 14 16
M  V30 16 1 14 17
M  V30 17 1 14 18
M  V30 18 1 15 19
M  V30 19 2 19 20
M  V30 20 1 19 21
M  V30 21 1 20 22
M  V30 22 2 21 23
M  V30 23 1 22 24
M  V30 24 2 22 25
M  V30 25 1 24 26
M  V30 26 1 25 27
M  V30 27 1 26 28 CFG=1
M  V30 28 1 26 29
M  V30 29 2 28 30
M  V30 30 1 28 31
M  V30 31 1 7 9
M  V30 32 1 23 25
M  V30 33 1 27 29
M  V30 END BOND
M  V30 BEGIN COLLECTION
M  V30 MDLV30/STEABS ATOMS=(1 26)
M  V30 END COLLECTION
M  V30 END CTAB
M  END
>  <Molecule ChEMBL ID>
CHEMBL2037079

>  <Smiles>
O=C(O)[C@@H]1CCc2ccc(OCCCOc3ccc(OCC(F)(F)F)cc3Cl)cc2O1

>  <IC50_nM>
4102.04

>  <Assay Description>
Agonist activity at PPARgamma

$$$$
CHEMBL3598143
Actelion Java MolfileCreator 2.0

  0  0  0  0  0  0              0 V3000
M  V30 BEGIN CTAB
M  V30 COUNTS 31 34 0 0 0
M  V30 BEGIN ATOM
M  V30 1 Cl -0.866 0.9999 0.0 0
M  V30 2 C 0.0 1.4999 0.0 0
M  V30 3 C 0.866 0.9999 0.0 0
M  V30 4 C 0.0 2.4999 0.0 0
M  V30 5 C 1.732 1.5 0.0 0
M  V30 6 C 0.866 0.0 0.0 0
M  V30 7 C 0.866 3.0 0.0 0
M  V30 8 C 1.732 2.4999 0.0 0
M  V30 9 C 2.598 1.0 0.0 0
M  V30 10 O 1.732 -0.5 0.0 0
M  V30 11 C 0.0 -0.5 0.0 0
M  V30 12 F 3.098 1.866 0.0 0
M  V30 13 F 3.4641 0.5 0.0 0
M  V30 14 F 2.098 0.1339 0.0 0
M  V30 15 N -0.9135 -0.0932 0.0 0
M  V30 16 N -0.1045 -1.4945 0.0 0
M  V30 17 C -1.5826 -0.8364 0.0 0
M  V30 18 C -1.0826 -1.7024 0.0 0
M  V30 19 C 0.5646 -2.2376 0.0 0
M  V30 20 C -2.5771 -0.7318 0.0 0
M  V30 21 N -1.3916 -2.6534 0.0 0
M  V30 22 C 0.2555 -3.1887 0.0 0
M  V30 23 C -2.9839 0.1816 0.0 0
M  V30 24 C -3.1649 -1.5408 0.0 0
M  V30 25 C -0.7225 -3.3966 0.0 0
M  V30 26 C -3.9784 0.2861 0.0 0
M  V30 27 C -4.1595 -1.4363 0.0 0
M  V30 28 C -4.5662 -0.5228 0.0 0
M  V30 29 C -5.5607 -0.4182 0.0 0
M  V30 30 O -5.9675 0.4952 0.0 0
M  V30 31 O -6.1485 -1.2273 0.0 0
M  V30 END ATOM
M  V30 BEGIN BOND
M  V30 1 1 1 2
M  V30 2 2 2 3
M  V30 3 1 2 4
M  V30 4 1 3 5
M  V30 5 1 3 6
M  V30 6 2 4 7
M  V30 7 2 5 8
M  V30 8 1 5 9
M  V30 9 2 6 10
M  V30 10 1 6 11
M  V30 11 1 9 12
M  V30 12 1 9 13
M  V30 13 1 9 14
M  V30 14 2 11 15
M  V30 15 1 11 16
M  V30 16 1 15 17
M  V30 17 1 16 18
M  V30 18 1 16 19
M  V30 19 1 17 20
M  V30 20 1 18 21
M  V30 21 2 19 22
M  V30 22 2 20 23
M  V30 23 1 20 24
M  V30 24 2 21 25
M  V30 25 1 23 26
M  V30 26 2 24 27
M  V30 27 2 26 28
M  V30 28 1 28 29
M  V30 29 2 29 30
M  V30 30 1 29 31
M  V30 31 1 7 8
M  V30 32 2 17 18
M  V30 33 1 22 25
M  V30 34 1 27 28
M  V30 END BOND
M  V30 END CTAB
M  END
>  <Molecule ChEMBL ID>
CHEMBL3598143

>  <Smiles>
O=C(O)c1ccc(-c2nc(C(=O)c3c(Cl)cccc3C(F)(F)F)n3cccnc23)cc1

>  <IC50_nM>
4200

>  <Assay Description>
Displacement of fluormone PPARgamma green from GST-tagged human PPARgamma-LBD after 2 hrs by fluorescence polarization assay

$$$$
CHEMBL4539507
Actelion Java MolfileCreator 2.0

  0  0  0  0  0  0              0 V3000
M  V30 BEGIN CTAB
M  V30 COUNTS 36 39 0 0 0
M  V30 BEGIN ATOM
M  V30 1 F 0.0 4.4999 0.0 0
M  V30 2 C 0.866 3.9999 0.0 0
M  V30 3 C 0.866 2.9999 0.0 0
M  V30 4 C 1.732 4.4999 0.0 0
M  V30 5 C 1.732 2.4999 0.0 0
M  V30 6 C 2.598 3.9999 0.0 0
M  V30 7 C 2.598 3.0 0.0 0
M  V30 8 C 3.4641 2.5 0.0 0
M  V30 9 O 3.4641 1.4999 0.0 0
M  V30 10 C 4.3301 1.0 0.0 0
M  V30 11 C 4.3301 0.0 0.0 0
M  V30 12 C 5.1961 1.5 0.0 0
M  V30 13 C 5.1961 -0.4999 0.0 0
M  V30 14 C 3.4641 -0.5 0.0 0
M  V30 15 C 6.0621 1.0 0.0 0
M  V30 16 C 6.0621 0.0 0.0 0
M  V30 17 C 3.4641 -1.5 0.0 0
M  V30 18 O 6.9282 -0.4999 0.0 0
M  V30 19 C 2.598 -1.9999 0.0 0
M  V30 20 C 4.3301 -2.0 0.0 0
M  V30 21 C 6.9282 -1.4999 0.0 0
M  V30 22 O 1.732 -1.4999 0.0 0
M  V30 23 O 2.598 -2.9999 0.0 0
M  V30 24 C 4.3301 -3.0 0.0 0
M  V30 25 C 7.7942 -1.9999 0.0 0
M  V30 26 C 5.1961 -3.5 0.0 0
M  V30 27 C 7.7942 -2.9999 0.0 0
M  V30 28 C 8.6602 -1.4999 0.0 0
M  V30 29 C 8.6602 -3.4999 0.0 0
M  V30 30 C 9.5262 -1.9999 0.0 0
M  V30 31 C 9.5262 -2.9999 0.0 0
M  V30 32 C 8.6602 -4.4999 0.0 0
M  V30 33 N 10.3923 -3.4999 0.0 0
M  V30 34 C 9.5262 -4.9999 0.0 0
M  V30 35 C 10.3923 -4.4999 0.0 0
M  V30 36 C 11.2583 -4.9999 0.0 0
M  V30 END ATOM
M  V30 BEGIN BOND
M  V30 1 1 1 2
M  V30 2 2 2 3
M  V30 3 1 2 4
M  V30 4 1 3 5
M  V30 5 2 4 6
M  V30 6 2 5 7
M  V30 7 1 7 8
M  V30 8 1 8 9
M  V30 9 1 9 10
M  V30 10 2 10 11
M  V30 11 1 10 12
M  V30 12 1 11 13
M  V30 13 1 11 14
M  V30 14 2 12 15
M  V30 15 2 13 16
M  V30 16 2 14 17
M  V30 17 1 16 18
M  V30 18 1 17 19
M  V30 19 1 17 20
M  V30 20 1 18 21
M  V30 21 2 19 22
M  V30 22 1 19 23
M  V30 23 1 20 24
M  V30 24 1 21 25
M  V30 25 1 24 26
M  V30 26 2 25 27
M  V30 27 1 25 28
M  V30 28 1 27 29
M  V30 29 2 28 30
M  V30 30 1 29 31
M  V30 31 2 29 32
M  V30 32 2 31 33
M  V30 33 1 32 34
M  V30 34 1 33 35
M  V30 35 1 35 36
M  V30 36 1 6 7
M  V30 37 1 15 16
M  V30 38 1 30 31
M  V30 39 2 34 35
M  V30 END BOND
M  V30 END CTAB
M  END
>  <Molecule ChEMBL ID>
CHEMBL4539507

>  <Smiles>
CCC/C(=C\c1cc(OCc2ccc3nc(C)ccc3c2)ccc1OCc1ccc(F)cc1)C(=O)O

>  <IC50_nM>
4200

>  <Assay Description>
Antagonist actvity in pFA-GAL4-DBD fused PPARgamma LBD (unknown origin) transfected in HEK293T cells assessed as inhibition of rosiglitazone-induced PPARgamma transactivation incubated for 24 hrs by luciferase reporter gene assay

$$$$
CHEMBL404451
Actelion Java MolfileCreator 2.0

  0  0  0  0  0  0              0 V3000
M  V30 BEGIN CTAB
M  V30 COUNTS 40 44 0 0 0
M  V30 BEGIN ATOM
M  V30 1 O 4.355 -3.7071 0.0 0
M  V30 2 C 5.355 -3.7071 0.0 0
M  V30 3 N 6.0621 -4.4142 0.0 0
M  V30 4 C 6.0621 -3.0 0.0 0 CFG=1
M  V30 5 C 6.0621 -5.4142 0.0 0
M  V30 6 C 6.7692 -3.7071 0.0 0 CFG=2
M  V30 7 C 6.0621 -1.9999 0.0 0
M  V30 8 C 5.1961 -5.9142 0.0 0
M  V30 9 C 6.9282 -5.9142 0.0 0
M  V30 10 C 7.7692 -3.7071 0.0 0
M  V30 11 C 5.1961 -1.4999 0.0 0
M  V30 12 C 5.1961 -6.9142 0.0 0
M  V30 13 C 6.9282 -6.9142 0.0 0
M  V30 14 O 8.2692 -4.5731 0.0 0
M  V30 15 O 8.2692 -2.841 0.0 0
M  V30 16 C 5.1961 -0.5 0.0 0
M  V30 17 C 4.3301 -1.9999 0.0 0
M  V30 18 C 6.0621 -7.4142 0.0 0
M  V30 19 C 4.3301 0.0 0.0 0
M  V30 20 C 3.4641 -1.5 0.0 0
M  V30 21 C 6.0621 -8.4142 0.0 0
M  V30 22 C 3.4641 -0.5 0.0 0
M  V30 23 C 7.0621 -8.4142 0.0 0
M  V30 24 C 6.0621 -9.4142 0.0 0
M  V30 25 C 5.0621 -8.4142 0.0 0
M  V30 26 O 2.598 0.0 0.0 0
M  V30 27 C 1.732 -0.5 0.0 0
M  V30 28 C 0.866 0.0 0.0 0
M  V30 29 C 0.0 -0.5 0.0 0
M  V30 30 N -0.9135 -0.0932 0.0 0
M  V30 31 C -0.1045 -1.4945 0.0 0
M  V30 32 C -1.5826 -0.8364 0.0 0
M  V30 33 O -1.0826 -1.7024 0.0 0
M  V30 34 C 0.6386 -2.1636 0.0 0
M  V30 35 C -2.5771 -0.7318 0.0 0
M  V30 36 C -2.9839 0.1816 0.0 0
M  V30 37 C -3.1649 -1.5408 0.0 0
M  V30 38 C -3.9784 0.2861 0.0 0
M  V30 39 C -4.1595 -1.4363 0.0 0
M  V30 40 C -4.5662 -0.5228 0.0 0
M  V30 END ATOM
M  V30 BEGIN BOND
M  V30 1 2 1 2
M  V30 2 1 2 3
M  V30 3 1 2 4
M  V30 4 1 3 5
M  V30 5 1 3 6
M  V30 6 1 4 7 CFG=3
M  V30 7 2 5 8
M  V30 8 1 5 9
M  V30 9 1 6 10 CFG=3
M  V30 10 1 7 11
M  V30 11 1 8 12
M  V30 12 2 9 13
M  V30 13 2 10 14
M  V30 14 1 10 15
M  V30 15 2 11 16
M  V30 16 1 11 17
M  V30 17 2 12 18
M  V30 18 1 16 19
M  V30 19 2 17 20
M  V30 20 1 18 21
M  V30 21 2 19 22
M  V30 22 1 21 23
M  V30 23 1 21 24
M  V30 24 1 21 25
M  V30 25 1 22 26
M  V30 26 1 26 27
M  V30 27 1 27 28
M  V30 28 1 28 29
M  V30 29 1 29 30
M  V30 30 2 29 31
M  V30 31 2 30 32
M  V30 32 1 31 33
M  V30 33 1 31 34
M  V30 34 1 32 35
M  V30 35 2 35 36
M  V30 36 1 35 37
M  V30 37 1 36 38
M  V30 38 2 37 39
M  V30 39 2 38 40
M  V30 40 1 4 6
M  V30 41 1 13 18
M  V30 42 1 20 22
M  V30 43 1 32 33
M  V30 44 1 39 40
M  V30 END BOND
M  V30 BEGIN COLLECTION
M  V30 MDLV30/STEABS ATOMS=(2 4 6)
M  V30 END COLLECTION
M  V30 END CTAB
M  END
>  <Molecule ChEMBL ID>
CHEMBL404451

>  <Smiles>
Cc1oc(-c2ccccc2)nc1CCOc1ccc(C[C@H]2C(=O)N(c3ccc(C(C)(C)C)cc3)[C@H]2C(=O)O)cc1

>  <IC50_nM>
4240

>  <Assay Description>
Inhibition of PPARgamma

$$$$
CHEMBL3398437
Actelion Java MolfileCreator 2.0

  0  0  0  0  0  0              0 V3000
M  V30 BEGIN CTAB
M  V30 COUNTS 35 38 0 0 0
M  V30 BEGIN ATOM
M  V30 1 O 9.4121 -2.7205 0.0 0
M  V30 2 C 8.4176 -2.6159 0.0 0
M  V30 3 O 7.8298 -3.4249 0.0 0
M  V30 4 N 8.0108 -1.7024 0.0 0
M  V30 5 C 6.8353 -3.3204 0.0 0
M  V30 6 C 8.5108 -0.8364 0.0 0
M  V30 7 C 7.0327 -1.4945 0.0 0
M  V30 8 C 6.2475 -4.1294 0.0 0
M  V30 9 C 7.8417 -0.0932 0.0 0 CFG=2
M  V30 10 C 6.9282 -0.5 0.0 0 CFG=1
M  V30 11 C 8.0496 0.8848 0.0 0
M  V30 12 C 6.0621 0.0 0.0 0
M  V30 13 O 9.0007 1.1939 0.0 0
M  V30 14 O 7.3065 1.554 0.0 0
M  V30 15 C 5.1961 -0.5 0.0 0
M  V30 16 C 4.3301 0.0 0.0 0
M  V30 17 C 5.1961 -1.4999 0.0 0
M  V30 18 C 3.4641 -0.5 0.0 0
M  V30 19 C 4.3301 -1.9999 0.0 0
M  V30 20 O 2.598 0.0 0.0 0
M  V30 21 C 3.4641 -1.4999 0.0 0
M  V30 22 C 1.732 -0.5 0.0 0
M  V30 23 C 0.866 0.0 0.0 0
M  V30 24 C 0.0 -0.5 0.0 0
M  V30 25 N -0.9135 -0.0932 0.0 0
M  V30 26 C -0.1045 -1.4945 0.0 0
M  V30 27 C -1.5826 -0.8364 0.0 0
M  V30 28 O -1.0826 -1.7024 0.0 0
M  V30 29 C 0.6386 -2.1636 0.0 0
M  V30 30 C -2.5771 -0.7318 0.0 0
M  V30 31 C -2.9839 0.1816 0.0 0
M  V30 32 C -3.1649 -1.5408 0.0 0
M  V30 33 C -3.9784 0.2861 0.0 0
M  V30 34 C -4.1595 -1.4363 0.0 0
M  V30 35 C -4.5662 -0.5228 0.0 0
M  V30 END ATOM
M  V30 BEGIN BOND
M  V30 1 2 1 2
M  V30 2 1 2 3
M  V30 3 1 2 4
M  V30 4 1 3 5
M  V30 5 1 4 6
M  V30 6 1 4 7
M  V30 7 1 5 8
M  V30 8 1 6 9
M  V30 9 1 7 10
M  V30 10 1 9 11 CFG=3
M  V30 11 1 10 12 CFG=3
M  V30 12 2 11 13
M  V30 13 1 11 14
M  V30 14 1 12 15
M  V30 15 2 15 16
M  V30 16 1 15 17
M  V30 17 1 16 18
M  V30 18 2 17 19
M  V30 19 1 18 20
M  V30 20 2 18 21
M  V30 21 1 20 22
M  V30 22 1 22 23
M  V30 23 1 23 24
M  V30 24 1 24 25
M  V30 25 2 24 26
M  V30 26 2 25 27
M  V30 27 1 26 28
M  V30 28 1 26 29
M  V30 29 1 27 30
M  V30 30 2 30 31
M  V30 31 1 30 32
M  V30 32 1 31 33
M  V30 33 2 32 34
M  V30 34 2 33 35
M  V30 35 1 9 10
M  V30 36 1 19 21
M  V30 37 1 27 28
M  V30 38 1 34 35
M  V30 END BOND
M  V30 BEGIN COLLECTION
M  V30 MDLV30/STEABS ATOMS=(2 9 10)
M  V30 END COLLECTION
M  V30 END CTAB
M  END
>  <Molecule ChEMBL ID>
CHEMBL3398437

>  <Smiles>
CCOC(=O)N1C[C@H](Cc2cccc(OCCc3nc(-c4ccccc4)oc3C)c2)[C@H](C(=O)O)C1

>  <IC50_nM>
4280

>  <Assay Description>
Binding affinity to PPARgamma (unknown origin) using fluorescein-tagged dual PPARalpha/gamma activator by homogeneous fluorescence polarization binding assay

$$$$
CHEMBL367549
Actelion Java MolfileCreator 2.0

  0  0  0  0  0  0              0 V3000
M  V30 BEGIN CTAB
M  V30 COUNTS 31 33 0 0 0
M  V30 BEGIN ATOM
M  V30 1 Cl 6.0621 1.0 0.0 0
M  V30 2 C 6.0621 0.0 0.0 0
M  V30 3 C 5.1961 -0.5 0.0 0
M  V30 4 C 6.9282 -0.4999 0.0 0
M  V30 5 O 4.3301 0.0 0.0 0
M  V30 6 C 5.1961 -1.4999 0.0 0
M  V30 7 C 6.9282 -1.4999 0.0 0
M  V30 8 C 3.4641 -0.5 0.0 0
M  V30 9 C 6.0621 -1.9999 0.0 0
M  V30 10 C 7.7942 -1.9999 0.0 0
M  V30 11 C 2.598 0.0 0.0 0
M  V30 12 F 8.2942 -1.1339 0.0 0
M  V30 13 F 8.6602 -2.4999 0.0 0
M  V30 14 F 7.2942 -2.866 0.0 0
M  V30 15 C 1.732 -0.5 0.0 0
M  V30 16 O 0.866 0.0 0.0 0
M  V30 17 C 0.0 -0.5 0.0 0
M  V30 18 C -0.866 0.0 0.0 0
M  V30 19 C 0.0 -1.4999 0.0 0
M  V30 20 C -1.732 -0.4999 0.0 0
M  V30 21 C -0.866 -1.9999 0.0 0
M  V30 22 O -2.598 0.0 0.0 0
M  V30 23 C -1.732 -1.4999 0.0 0
M  V30 24 C -3.4641 -0.4999 0.0 0 CFG=1
M  V30 25 C -2.598 -1.9999 0.0 0
M  V30 26 C -3.4641 0.5 0.0 0
M  V30 27 C -3.4641 -1.4999 0.0 0
M  V30 28 C -4.3301 0.0 0.0 0
M  V30 29 O -4.3301 1.0 0.0 0
M  V30 30 O -2.598 1.0 0.0 0
M  V30 31 C -5.1961 -0.4999 0.0 0
M  V30 END ATOM
M  V30 BEGIN BOND
M  V30 1 1 1 2
M  V30 2 2 2 3
M  V30 3 1 2 4
M  V30 4 1 3 5
M  V30 5 1 3 6
M  V30 6 2 4 7
M  V30 7 1 5 8
M  V30 8 2 6 9
M  V30 9 1 7 10
M  V30 10 1 8 11
M  V30 11 1 10 12
M  V30 12 1 10 13
M  V30 13 1 10 14
M  V30 14 1 11 15
M  V30 15 1 15 16
M  V30 16 1 16 17
M  V30 17 2 17 18
M  V30 18 1 17 19
M  V30 19 1 18 20
M  V30 20 2 19 21
M  V30 21 1 20 22
M  V30 22 2 20 23
M  V30 23 1 22 24
M  V30 24 1 23 25
M  V30 25 1 24 26 CFG=3
M  V30 26 1 24 27
M  V30 27 1 24 28
M  V30 28 2 26 29
M  V30 29 1 26 30
M  V30 30 1 28 31
M  V30 31 1 7 9
M  V30 32 1 21 23
M  V30 33 1 25 27
M  V30 END BOND
M  V30 BEGIN COLLECTION
M  V30 MDLV30/STEABS ATOMS=(1 24)
M  V30 END COLLECTION
M  V30 END CTAB
M  END
>  <Molecule ChEMBL ID>
CHEMBL367549

>  <Smiles>
CC[C@]1(C(=O)O)CCc2ccc(OCCCOc3ccc(C(F)(F)F)cc3Cl)cc2O1

>  <IC50_nM>
4295.36

>  <Assay Description>
Agonist activity at PPARgamma

$$$$
CHEMBL424957
Actelion Java MolfileCreator 2.0

  0  0  0  0  0  0              0 V3000
M  V30 BEGIN CTAB
M  V30 COUNTS 28 30 0 0 0
M  V30 BEGIN ATOM
M  V30 1 Cl 6.0621 1.0 0.0 0
M  V30 2 C 6.0621 0.0 0.0 0
M  V30 3 C 5.1961 -0.5 0.0 0
M  V30 4 C 6.9282 -0.4999 0.0 0
M  V30 5 O 4.3301 0.0 0.0 0
M  V30 6 C 5.1961 -1.4999 0.0 0
M  V30 7 C 6.9282 -1.4999 0.0 0
M  V30 8 C 3.4641 -0.5 0.0 0
M  V30 9 C 6.0621 -1.9999 0.0 0
M  V30 10 F 7.7942 -1.9999 0.0 0
M  V30 11 C 2.598 0.0 0.0 0
M  V30 12 C 1.732 -0.5 0.0 0
M  V30 13 O 0.866 0.0 0.0 0
M  V30 14 C 0.0 -0.5 0.0 0
M  V30 15 C -0.866 0.0 0.0 0
M  V30 16 C 0.0 -1.4999 0.0 0
M  V30 17 C -1.732 -0.4999 0.0 0
M  V30 18 C -0.866 -1.9999 0.0 0
M  V30 19 O -2.598 0.0 0.0 0
M  V30 20 C -1.732 -1.4999 0.0 0
M  V30 21 C -3.4641 -0.4999 0.0 0 CFG=1
M  V30 22 C -2.598 -1.9999 0.0 0
M  V30 23 C -3.4641 0.5 0.0 0
M  V30 24 C -3.4641 -1.4999 0.0 0
M  V30 25 C -4.3301 0.0 0.0 0
M  V30 26 O -4.3301 1.0 0.0 0
M  V30 27 O -2.598 1.0 0.0 0
M  V30 28 C -5.1961 -0.4999 0.0 0
M  V30 END ATOM
M  V30 BEGIN BOND
M  V30 1 1 1 2
M  V30 2 2 2 3
M  V30 3 1 2 4
M  V30 4 1 3 5
M  V30 5 1 3 6
M  V30 6 2 4 7
M  V30 7 1 5 8
M  V30 8 2 6 9
M  V30 9 1 7 10
M  V30 10 1 8 11
M  V30 11 1 11 12
M  V30 12 1 12 13
M  V30 13 1 13 14
M  V30 14 2 14 15
M  V30 15 1 14 16
M  V30 16 1 15 17
M  V30 17 2 16 18
M  V30 18 1 17 19
M  V30 19 2 17 20
M  V30 20 1 19 21
M  V30 21 1 20 22
M  V30 22 1 21 23 CFG=3
M  V30 23 1 21 24
M  V30 24 1 21 25
M  V30 25 2 23 26
M  V30 26 1 23 27
M  V30 27 1 25 28
M  V30 28 1 7 9
M  V30 29 1 18 20
M  V30 30 1 22 24
M  V30 END BOND
M  V30 BEGIN COLLECTION
M  V30 MDLV30/STEABS ATOMS=(1 21)
M  V30 END COLLECTION
M  V30 END CTAB
M  END
>  <Molecule ChEMBL ID>
CHEMBL424957

>  <Smiles>
CC[C@]1(C(=O)O)CCc2ccc(OCCCOc3ccc(F)cc3Cl)cc2O1

>  <IC50_nM>
4300

>  <Assay Description>
In vitro binding affinity against human PPARgamma

$$$$
CHEMBL367549
Actelion Java MolfileCreator 2.0

  0  0  0  0  0  0              0 V3000
M  V30 BEGIN CTAB
M  V30 COUNTS 31 33 0 0 0
M  V30 BEGIN ATOM
M  V30 1 Cl 6.0621 1.0 0.0 0
M  V30 2 C 6.0621 0.0 0.0 0
M  V30 3 C 5.1961 -0.5 0.0 0
M  V30 4 C 6.9282 -0.4999 0.0 0
M  V30 5 O 4.3301 0.0 0.0 0
M  V30 6 C 5.1961 -1.4999 0.0 0
M  V30 7 C 6.9282 -1.4999 0.0 0
M  V30 8 C 3.4641 -0.5 0.0 0
M  V30 9 C 6.0621 -1.9999 0.0 0
M  V30 10 C 7.7942 -1.9999 0.0 0
M  V30 11 C 2.598 0.0 0.0 0
M  V30 12 F 8.2942 -1.1339 0.0 0
M  V30 13 F 8.6602 -2.4999 0.0 0
M  V30 14 F 7.2942 -2.866 0.0 0
M  V30 15 C 1.732 -0.5 0.0 0
M  V30 16 O 0.866 0.0 0.0 0
M  V30 17 C 0.0 -0.5 0.0 0
M  V30 18 C -0.866 0.0 0.0 0
M  V30 19 C 0.0 -1.4999 0.0 0
M  V30 20 C -1.732 -0.4999 0.0 0
M  V30 21 C -0.866 -1.9999 0.0 0
M  V30 22 O -2.598 0.0 0.0 0
M  V30 23 C -1.732 -1.4999 0.0 0
M  V30 24 C -3.4641 -0.4999 0.0 0 CFG=1
M  V30 25 C -2.598 -1.9999 0.0 0
M  V30 26 C -3.4641 0.5 0.0 0
M  V30 27 C -3.4641 -1.4999 0.0 0
M  V30 28 C -4.3301 0.0 0.0 0
M  V30 29 O -4.3301 1.0 0.0 0
M  V30 30 O -2.598 1.0 0.0 0
M  V30 31 C -5.1961 -0.4999 0.0 0
M  V30 END ATOM
M  V30 BEGIN BOND
M  V30 1 1 1 2
M  V30 2 2 2 3
M  V30 3 1 2 4
M  V30 4 1 3 5
M  V30 5 1 3 6
M  V30 6 2 4 7
M  V30 7 1 5 8
M  V30 8 2 6 9
M  V30 9 1 7 10
M  V30 10 1 8 11
M  V30 11 1 10 12
M  V30 12 1 10 13
M  V30 13 1 10 14
M  V30 14 1 11 15
M  V30 15 1 15 16
M  V30 16 1 16 17
M  V30 17 2 17 18
M  V30 18 1 17 19
M  V30 19 1 18 20
M  V30 20 2 19 21
M  V30 21 1 20 22
M  V30 22 2 20 23
M  V30 23 1 22 24
M  V30 24 1 23 25
M  V30 25 1 24 26 CFG=3
M  V30 26 1 24 27
M  V30 27 1 24 28
M  V30 28 2 26 29
M  V30 29 1 26 30
M  V30 30 1 28 31
M  V30 31 1 7 9
M  V30 32 1 21 23
M  V30 33 1 25 27
M  V30 END BOND
M  V30 BEGIN COLLECTION
M  V30 MDLV30/STEABS ATOMS=(1 24)
M  V30 END COLLECTION
M  V30 END CTAB
M  END
>  <Molecule ChEMBL ID>
CHEMBL367549

>  <Smiles>
CC[C@]1(C(=O)O)CCc2ccc(OCCCOc3ccc(C(F)(F)F)cc3Cl)cc2O1

>  <IC50_nM>
4300

>  <Assay Description>
In vitro binding affinity against human PPARgamma

$$$$
CHEMBL3397721
Actelion Java MolfileCreator 2.0

  0  0  0  0  0  0              0 V3000
M  V30 BEGIN CTAB
M  V30 COUNTS 45 48 0 0 0
M  V30 BEGIN ATOM
M  V30 1 F 20.0346 3.549 0.0 0
M  V30 2 C 20.7846 2.25 0.0 0
M  V30 3 F 22.0836 3.0 0.0 0
M  V30 4 F 21.5346 0.9509 0.0 0
M  V30 5 C 19.4855 1.4999 0.0 0
M  V30 6 N 18.1865 2.2499 0.0 0
M  V30 7 C 19.4855 0.0 0.0 0
M  V30 8 C 16.8874 1.4999 0.0 0
M  V30 9 C 18.1865 -0.75 0.0 0
M  V30 10 C 16.8874 0.0 0.0 0
M  V30 11 C 15.5884 2.2499 0.0 0
M  V30 12 O 18.1865 -2.25 0.0 0
M  V30 13 C 15.5884 -0.75 0.0 0
M  V30 14 C 14.2894 1.4999 0.0 0
M  V30 15 C 19.4855 -2.9999 0.0 0
M  V30 16 C 14.2894 0.0 0.0 0
M  V30 17 C 12.9903 -0.75 0.0 0
M  V30 18 O 11.6913 0.0 0.0 0
M  V30 19 C 10.3923 -0.75 0.0 0
M  V30 20 C 9.0932 0.0 0.0 0
M  V30 21 C 10.3923 -2.25 0.0 0
M  V30 22 C 7.7942 -0.75 0.0 0
M  V30 23 C 9.0932 -3.0 0.0 0
M  V30 24 C 7.7942 -2.25 0.0 0
M  V30 25 C 6.4951 0.0 0.0 0
M  V30 26 O 6.4951 -3.0 0.0 0
M  V30 27 C 6.4951 1.5 0.0 0
M  V30 28 C 5.1961 -2.2499 0.0 0
M  V30 29 C 5.1961 2.25 0.0 0
M  V30 30 C 7.7942 2.25 0.0 0
M  V30 31 C 3.8971 -2.9999 0.0 0
M  V30 32 O 5.1961 3.75 0.0 0
M  V30 33 O 3.8971 1.5 0.0 0
M  V30 34 C 7.7942 3.75 0.0 0
M  V30 35 C 2.598 -2.2499 0.0 0
M  V30 36 C 3.8971 -4.4999 0.0 0
M  V30 37 C 9.0932 4.5 0.0 0
M  V30 38 C 1.299 -2.9999 0.0 0
M  V30 39 C 2.598 -5.2499 0.0 0
M  V30 40 C 9.0932 5.9999 0.0 0
M  V30 41 C 1.299 -4.4999 0.0 0
M  V30 42 C 0.0 -5.2499 0.0 0
M  V30 43 F 0.7499 -6.549 0.0 0
M  V30 44 F -1.299 -5.9999 0.0 0
M  V30 45 F -0.75 -3.9509 0.0 0
M  V30 END ATOM
M  V30 BEGIN BOND
M  V30 1 1 1 2
M  V30 2 1 2 3
M  V30 3 1 2 4
M  V30 4 1 2 5
M  V30 5 2 5 6
M  V30 6 1 5 7
M  V30 7 1 6 8
M  V30 8 2 7 9
M  V30 9 1 8 10
M  V30 10 2 8 11
M  V30 11 1 9 12
M  V30 12 2 10 13
M  V30 13 1 11 14
M  V30 14 1 12 15
M  V30 15 1 13 16
M  V30 16 1 16 17
M  V30 17 1 17 18
M  V30 18 1 18 19
M  V30 19 2 19 20
M  V30 20 1 19 21
M  V30 21 1 20 22
M  V30 22 2 21 23
M  V30 23 2 22 24
M  V30 24 1 22 25
M  V30 25 1 24 26
M  V30 26 2 25 27
M  V30 27 1 26 28
M  V30 28 1 27 29
M  V30 29 1 27 30
M  V30 30 1 28 31
M  V30 31 2 29 32
M  V30 32 1 29 33
M  V30 33 1 30 34
M  V30 34 2 31 35
M  V30 35 1 31 36
M  V30 36 1 34 37
M  V30 37 1 35 38
M  V30 38 2 36 39
M  V30 39 1 37 40
M  V30 40 2 38 41
M  V30 41 1 41 42
M  V30 42 1 42 43
M  V30 43 1 42 44
M  V30 44 1 42 45
M  V30 45 1 9 10
M  V30 46 2 14 16
M  V30 47 1 23 24
M  V30 48 1 39 41
M  V30 END BOND
M  V30 END CTAB
M  END
>  <Molecule ChEMBL ID>
CHEMBL3397721

>  <Smiles>
CCCC/C(=C\c1cc(OCc2ccc3nc(C(F)(F)F)cc(OC)c3c2)ccc1OCc1ccc(C(F)(F)F)cc1)C(=O)O

>  <IC50_nM>
4300

>  <Assay Description>
Antagonist actvity in pFA-GAL4-DBD fused PPARgamma LBD (unknown origin) transfected in HEK293T cells assessed as inhibition of rosiglitazone-induced PPARgamma transactivation incubated for 24 hrs by luciferase reporter gene assay

$$$$
CHEMBL190968
Actelion Java MolfileCreator 2.0

  0  0  0  0  0  0              0 V3000
M  V30 BEGIN CTAB
M  V30 COUNTS 30 32 0 0 0
M  V30 BEGIN ATOM
M  V30 1 Cl 9.0932 1.5 0.0 0
M  V30 2 C 9.0932 0.0 0.0 0
M  V30 3 C 7.7942 -0.75 0.0 0
M  V30 4 C 10.3923 -0.7499 0.0 0
M  V30 5 O 6.4951 0.0 0.0 0
M  V30 6 C 7.7942 -2.25 0.0 0
M  V30 7 C 10.3923 -2.2499 0.0 0
M  V30 8 C 5.1961 -0.75 0.0 0
M  V30 9 C 9.0932 -2.9999 0.0 0
M  V30 10 C 11.6913 -2.9999 0.0 0
M  V30 11 C 3.8971 0.0 0.0 0
M  V30 12 C 12.4413 -1.7009 0.0 0
M  V30 13 C 12.9903 -3.7499 0.0 0
M  V30 14 C 10.9413 -4.299 0.0 0
M  V30 15 C 2.598 -0.75 0.0 0
M  V30 16 O 1.299 0.0 0.0 0
M  V30 17 C 0.0 -0.75 0.0 0
M  V30 18 C 0.0 -2.2499 0.0 0
M  V30 19 C -1.299 0.0 0.0 0
M  V30 20 C -1.299 -2.9999 0.0 0
M  V30 21 C -2.598 -0.7499 0.0 0
M  V30 22 C -2.598 -2.2499 0.0 0
M  V30 23 C -1.6109 -4.4672 0.0 0
M  V30 24 O -3.7127 -3.2536 0.0 0
M  V30 25 C -3.1026 -4.624 0.0 0 CFG=2
M  V30 26 C -4.6006 -4.5455 0.0 0
M  V30 27 C -3.8526 -5.923 0.0 0
M  V30 28 O -5.4175 -5.8035 0.0 0
M  V30 29 O -5.2816 -3.209 0.0 0
M  V30 30 C -3.1026 -7.222 0.0 0
M  V30 END ATOM
M  V30 BEGIN BOND
M  V30 1 1 1 2
M  V30 2 2 2 3
M  V30 3 1 2 4
M  V30 4 1 3 5
M  V30 5 1 3 6
M  V30 6 2 4 7
M  V30 7 1 5 8
M  V30 8 2 6 9
M  V30 9 1 7 10
M  V30 10 1 8 11
M  V30 11 1 10 12
M  V30 12 1 10 13
M  V30 13 1 10 14
M  V30 14 1 11 15
M  V30 15 1 15 16
M  V30 16 1 16 17
M  V30 17 2 17 18
M  V30 18 1 17 19
M  V30 19 1 18 20
M  V30 20 2 19 21
M  V30 21 2 20 22
M  V30 22 1 20 23
M  V30 23 1 22 24
M  V30 24 1 23 25
M  V30 25 1 25 26
M  V30 26 1 25 27 CFG=3
M  V30 27 2 26 28
M  V30 28 1 26 29
M  V30 29 1 27 30
M  V30 30 1 7 9
M  V30 31 1 21 22
M  V30 32 1 24 25
M  V30 END BOND
M  V30 BEGIN COLLECTION
M  V30 MDLV30/STERAC1 ATOMS=(1 25)
M  V30 END COLLECTION
M  V30 END CTAB
M  END
>  <Molecule ChEMBL ID>
CHEMBL190968

>  <Smiles>
CCC1(C(=O)O)Cc2cc(OCCCOc3ccc(C(C)(C)C)cc3Cl)ccc2O1

>  <IC50_nM>
4330

>  <Assay Description>
In vitro binding affinity for PPAR-gamma

$$$$
CHEMBL109241
Actelion Java MolfileCreator 2.0

  0  0  0  0  0  0              0 V3000
M  V30 BEGIN CTAB
M  V30 COUNTS 35 38 0 0 0
M  V30 BEGIN ATOM
M  V30 1 Cl 6.0621 1.0 0.0 0
M  V30 2 C 6.0621 0.0 0.0 0
M  V30 3 C 5.1961 -0.5 0.0 0
M  V30 4 C 6.9282 -0.4999 0.0 0
M  V30 5 O 4.3301 0.0 0.0 0
M  V30 6 C 5.1961 -1.4999 0.0 0
M  V30 7 C 6.9282 -1.4999 0.0 0
M  V30 8 C 3.4641 -0.5 0.0 0
M  V30 9 C 6.0621 -1.9999 0.0 0
M  V30 10 O 7.7942 -1.9999 0.0 0
M  V30 11 C 2.598 0.0 0.0 0
M  V30 12 C 8.6602 -1.4999 0.0 0
M  V30 13 C 1.732 -0.5 0.0 0
M  V30 14 C 9.5262 -1.9999 0.0 0
M  V30 15 C 8.6602 -0.4999 0.0 0
M  V30 16 O 0.866 0.0 0.0 0
M  V30 17 C 10.3923 -1.4999 0.0 0
M  V30 18 C 9.5262 0.0 0.0 0
M  V30 19 C 0.0 -0.5 0.0 0
M  V30 20 C 10.3923 -0.5 0.0 0
M  V30 21 C -0.866 0.0 0.0 0
M  V30 22 C 0.0 -1.4999 0.0 0
M  V30 23 F 11.2583 0.0 0.0 0
M  V30 24 C -1.732 -0.4999 0.0 0
M  V30 25 C -0.866 -1.9999 0.0 0
M  V30 26 O -2.598 0.0 0.0 0
M  V30 27 C -1.732 -1.4999 0.0 0
M  V30 28 C -3.4641 -0.4999 0.0 0 CFG=2
M  V30 29 C -2.598 -1.9999 0.0 0
M  V30 30 C -3.4641 0.5 0.0 0
M  V30 31 C -3.4641 -1.4999 0.0 0
M  V30 32 C -4.3301 0.0 0.0 0
M  V30 33 O -4.3301 1.0 0.0 0
M  V30 34 O -2.598 1.0 0.0 0
M  V30 35 C -5.1961 -0.4999 0.0 0
M  V30 END ATOM
M  V30 BEGIN BOND
M  V30 1 1 1 2
M  V30 2 2 2 3
M  V30 3 1 2 4
M  V30 4 1 3 5
M  V30 5 1 3 6
M  V30 6 2 4 7
M  V30 7 1 5 8
M  V30 8 2 6 9
M  V30 9 1 7 10
M  V30 10 1 8 11
M  V30 11 1 10 12
M  V30 12 1 11 13
M  V30 13 2 12 14
M  V30 14 1 12 15
M  V30 15 1 13 16
M  V30 16 1 14 17
M  V30 17 2 15 18
M  V30 18 1 16 19
M  V30 19 2 17 20
M  V30 20 2 19 21
M  V30 21 1 19 22
M  V30 22 1 20 23
M  V30 23 1 21 24
M  V30 24 2 22 25
M  V30 25 1 24 26
M  V30 26 2 24 27
M  V30 27 1 26 28
M  V30 28 1 27 29
M  V30 29 1 28 30 CFG=1
M  V30 30 1 28 31
M  V30 31 1 28 32
M  V30 32 2 30 33
M  V30 33 1 30 34
M  V30 34 1 32 35
M  V30 35 1 7 9
M  V30 36 1 18 20
M  V30 37 1 25 27
M  V30 38 1 29 31
M  V30 END BOND
M  V30 BEGIN COLLECTION
M  V30 MDLV30/STEABS ATOMS=(1 28)
M  V30 END COLLECTION
M  V30 END CTAB
M  END
>  <Molecule ChEMBL ID>
CHEMBL109241

>  <Smiles>
CC[C@@]1(C(=O)O)CCc2ccc(OCCCOc3ccc(Oc4ccc(F)cc4)cc3Cl)cc2O1

>  <IC50_nM>
4400

>  <Assay Description>
In vitro binding affinity for human peroxisome proliferator activated receptor gamma using scintillation proximity assay (SPA)

$$$$
CHEMBL400132
Actelion Java MolfileCreator 2.0

  0  0  0  0  0  0              0 V3000
M  V30 BEGIN CTAB
M  V30 COUNTS 31 35 0 0 0
M  V30 BEGIN ATOM
M  V30 1 Cl 0.866 -2.0 0.0 0
M  V30 2 C 1.732 -1.5 0.0 0
M  V30 3 C 1.732 -0.5 0.0 0
M  V30 4 C 2.598 -1.9999 0.0 0
M  V30 5 O 0.866 0.0 0.0 0
M  V30 6 C 2.598 0.0 0.0 0
M  V30 7 C 3.4641 -1.4999 0.0 0
M  V30 8 C 2.598 -3.0 0.0 0
M  V30 9 C 0.0 -0.5 0.0 0
M  V30 10 C 2.598 1.0 0.0 0
M  V30 11 C 3.4641 -0.4999 0.0 0
M  V30 12 C 1.732 1.4999 0.0 0
M  V30 13 C 3.4641 1.5 0.0 0
M  V30 14 C 4.3301 0.0 0.0 0
M  V30 15 O 0.866 1.0 0.0 0
M  V30 16 C 1.732 2.5 0.0 0
M  V30 17 C 3.4641 2.5 0.0 0
M  V30 18 C 4.3301 1.0 0.0 0
M  V30 19 C 2.598 3.0 0.0 0
M  V30 20 C 0.866 2.9999 0.0 0
M  V30 21 O 4.3301 3.0 0.0 0
M  V30 22 O 5.1961 1.5 0.0 0
M  V30 23 C 2.598 4.0 0.0 0
M  V30 24 C 0.866 3.9999 0.0 0
M  V30 25 O 3.4641 4.5 0.0 0
M  V30 26 C 1.732 4.5 0.0 0
M  V30 27 C 0.1228 4.6691 0.0 0
M  V30 28 C 1.5241 5.4781 0.0 0 CFG=1
M  V30 29 O -0.8552 4.4612 0.0 0
M  V30 30 O 0.5296 5.5826 0.0 0
M  V30 31 C 2.1932 6.2212 0.0 0
M  V30 END ATOM
M  V30 BEGIN BOND
M  V30 1 1 1 2
M  V30 2 2 2 3
M  V30 3 1 2 4
M  V30 4 1 3 5
M  V30 5 1 3 6
M  V30 6 2 4 7
M  V30 7 1 4 8
M  V30 8 1 5 9
M  V30 9 2 6 10
M  V30 10 1 6 11
M  V30 11 1 10 12
M  V30 12 1 10 13
M  V30 13 2 11 14
M  V30 14 2 12 15
M  V30 15 1 12 16
M  V30 16 1 13 17
M  V30 17 2 13 18
M  V30 18 2 16 19
M  V30 19 1 16 20
M  V30 20 2 17 21
M  V30 21 1 18 22
M  V30 22 1 19 23
M  V30 23 2 20 24
M  V30 24 1 23 25
M  V30 25 2 23 26
M  V30 26 1 24 27
M  V30 27 1 26 28
M  V30 28 2 27 29
M  V30 29 1 27 30
M  V30 30 1 28 31 CFG=1
M  V30 31 1 7 11
M  V30 32 1 14 18
M  V30 33 1 17 19
M  V30 34 1 24 26
M  V30 35 1 28 30
M  V30 END BOND
M  V30 BEGIN COLLECTION
M  V30 MDLV30/STERAC1 ATOMS=(1 28)
M  V30 END COLLECTION
M  V30 END CTAB
M  END
>  <Molecule ChEMBL ID>
CHEMBL400132

>  <Smiles>
COc1c(Cl)c(C)cc2cc(O)c3c(c12)C(=O)c1cc2c(c(O)c1C3=O)C(C)OC2=O

>  <IC50_nM>
4400

>  <Assay Description>
Antagonist activity at human PPARgamma receptor in CHO-K1 cells assessed as rosiglitazone-induced receptor activation by cell based reporter assay

$$$$
CHEMBL121
Actelion Java MolfileCreator 2.0

  0  0  0  0  0  0              0 V3000
M  V30 BEGIN CTAB
M  V30 COUNTS 25 27 0 0 0
M  V30 BEGIN ATOM
M  V30 1 S 7.8987 0.0054 0.0 0
M  V30 2 C 8.8769 -0.2024 0.0 0
M  V30 3 C 7.7942 0.9999 0.0 0 CFG=2
M  V30 4 O 9.2836 -1.1159 0.0 0
M  V30 5 N 9.3769 0.6635 0.0 0
M  V30 6 C 8.7077 1.4067 0.0 0
M  V30 7 C 6.9282 1.4999 0.0 0
M  V30 8 O 8.9156 2.3848 0.0 0
M  V30 9 C 6.0621 0.9999 0.0 0
M  V30 10 C 5.1961 1.4999 0.0 0
M  V30 11 C 6.0621 0.0 0.0 0
M  V30 12 C 4.3301 0.9999 0.0 0
M  V30 13 C 5.1961 -0.5 0.0 0
M  V30 14 C 4.3301 0.0 0.0 0
M  V30 15 O 3.4641 -0.5 0.0 0
M  V30 16 C 2.598 0.0 0.0 0
M  V30 17 C 1.732 -0.5 0.0 0
M  V30 18 N 0.866 0.0 0.0 0
M  V30 19 C 0.866 1.0 0.0 0
M  V30 20 C 0.0 -0.5 0.0 0
M  V30 21 N 1.732 1.4999 0.0 0
M  V30 22 C 0.0 1.4999 0.0 0
M  V30 23 C 1.732 2.5 0.0 0
M  V30 24 C 0.0 2.5 0.0 0
M  V30 25 C 0.866 3.0 0.0 0
M  V30 END ATOM
M  V30 BEGIN BOND
M  V30 1 1 1 2
M  V30 2 1 1 3
M  V30 3 2 2 4
M  V30 4 1 2 5
M  V30 5 1 3 6
M  V30 6 1 3 7 CFG=1
M  V30 7 2 6 8
M  V30 8 1 7 9
M  V30 9 2 9 10
M  V30 10 1 9 11
M  V30 11 1 10 12
M  V30 12 2 11 13
M  V30 13 2 12 14
M  V30 14 1 14 15
M  V30 15 1 15 16
M  V30 16 1 16 17
M  V30 17 1 17 18
M  V30 18 1 18 19
M  V30 19 1 18 20
M  V30 20 2 19 21
M  V30 21 1 19 22
M  V30 22 1 21 23
M  V30 23 2 22 24
M  V30 24 2 23 25
M  V30 25 1 5 6
M  V30 26 1 13 14
M  V30 27 1 24 25
M  V30 END BOND
M  V30 BEGIN COLLECTION
M  V30 MDLV30/STERAC1 ATOMS=(1 3)
M  V30 END COLLECTION
M  V30 END CTAB
M  END
>  <Molecule ChEMBL ID>
CHEMBL121

>  <Smiles>
CN(CCOc1ccc(CC2SC(=O)NC2=O)cc1)c1ccccn1

>  <IC50_nM>
4400

>  <Assay Description>
Inhibition of PPARgamma (unknown origin) phosphorylation at pS273 residue

$$$$
CHEMBL3398427
Actelion Java MolfileCreator 2.0

  0  0  0  0  0  0              0 V3000
M  V30 BEGIN CTAB
M  V30 COUNTS 38 42 0 0 0
M  V30 BEGIN ATOM
M  V30 1 O 9.2271 -3.0408 0.0 0
M  V30 2 C 8.6393 -2.2318 0.0 0
M  V30 3 O 9.0461 -1.3183 0.0 0
M  V30 4 N 7.6448 -2.3364 0.0 0
M  V30 5 C 8.4583 -0.5093 0.0 0
M  V30 6 C 6.9757 -1.5932 0.0 0
M  V30 7 C 7.1448 -3.2024 0.0 0
M  V30 8 C 8.865 0.4042 0.0 0
M  V30 9 C 7.4638 -0.6138 0.0 0
M  V30 10 C 6.0621 -1.9999 0.0 0 CFG=2
M  V30 11 C 6.1667 -2.9945 0.0 0 CFG=1
M  V30 12 C 8.2772 1.2132 0.0 0
M  V30 13 C 6.876 0.1951 0.0 0
M  V30 14 C 5.1961 -1.4999 0.0 0
M  V30 15 C 5.4235 -3.6636 0.0 0
M  V30 16 C 7.2827 1.1087 0.0 0
M  V30 17 C 5.1961 -0.5 0.0 0
M  V30 18 C 4.3301 -1.9999 0.0 0
M  V30 19 O 4.4725 -3.3546 0.0 0
M  V30 20 O 5.6314 -4.6418 0.0 0
M  V30 21 C 4.3301 0.0 0.0 0
M  V30 22 C 3.4641 -1.5 0.0 0
M  V30 23 C 3.4641 -0.5 0.0 0
M  V30 24 O 2.598 0.0 0.0 0
M  V30 25 C 1.732 -0.5 0.0 0
M  V30 26 C 0.866 0.0 0.0 0
M  V30 27 C 0.0 -0.5 0.0 0
M  V30 28 N -0.9135 -0.0932 0.0 0
M  V30 29 C -0.1045 -1.4945 0.0 0
M  V30 30 C -1.5826 -0.8364 0.0 0
M  V30 31 O -1.0826 -1.7024 0.0 0
M  V30 32 C 0.6386 -2.1636 0.0 0
M  V30 33 C -2.5771 -0.7318 0.0 0
M  V30 34 C -2.9839 0.1816 0.0 0
M  V30 35 C -3.1649 -1.5408 0.0 0
M  V30 36 C -3.9784 0.2861 0.0 0
M  V30 37 C -4.1595 -1.4363 0.0 0
M  V30 38 C -4.5662 -0.5228 0.0 0
M  V30 END ATOM
M  V30 BEGIN BOND
M  V30 1 2 1 2
M  V30 2 1 2 3
M  V30 3 1 2 4
M  V30 4 1 3 5
M  V30 5 1 4 6
M  V30 6 1 4 7
M  V30 7 2 5 8
M  V30 8 1 5 9
M  V30 9 1 6 10
M  V30 10 1 7 11
M  V30 11 1 8 12
M  V30 12 2 9 13
M  V30 13 1 10 14 CFG=3
M  V30 14 1 11 15 CFG=3
M  V30 15 2 12 16
M  V30 16 2 14 17
M  V30 17 1 14 18
M  V30 18 2 15 19
M  V30 19 1 15 20
M  V30 20 1 17 21
M  V30 21 2 18 22
M  V30 22 2 21 23
M  V30 23 1 23 24
M  V30 24 1 24 25
M  V30 25 1 25 26
M  V30 26 1 26 27
M  V30 27 1 27 28
M  V30 28 2 27 29
M  V30 29 2 28 30
M  V30 30 1 29 31
M  V30 31 1 29 32
M  V30 32 1 30 33
M  V30 33 2 33 34
M  V30 34 1 33 35
M  V30 35 1 34 36
M  V30 36 2 35 37
M  V30 37 2 36 38
M  V30 38 1 10 11
M  V30 39 1 13 16
M  V30 40 1 22 23
M  V30 41 1 30 31
M  V30 42 1 37 38
M  V30 END BOND
M  V30 BEGIN COLLECTION
M  V30 MDLV30/STEABS ATOMS=(2 10 11)
M  V30 END COLLECTION
M  V30 END CTAB
M  END
>  <Molecule ChEMBL ID>
CHEMBL3398427

>  <Smiles>
Cc1oc(-c2ccccc2)nc1CCOc1ccc([C@@H]2CN(C(=O)Oc3ccccc3)C[C@@H]2C(=O)O)cc1

>  <IC50_nM>
4470

>  <Assay Description>
Binding affinity to PPARgamma (unknown origin) using fluorescein-tagged dual PPARalpha/gamma activator by homogeneous fluorescence polarization binding assay

$$$$
CHEMBL4454999
Actelion Java MolfileCreator 2.0

  0  0  0  0  0  0              0 V3000
M  V30 BEGIN CTAB
M  V30 COUNTS 23 25 0 0 0
M  V30 BEGIN ATOM
M  V30 1 Cl 7.2928 -0.4182 0.0 0
M  V30 2 C 6.2982 -0.5228 0.0 0
M  V30 3 C 5.7105 0.2861 0.0 0
M  V30 4 C 5.8915 -1.4363 0.0 0
M  V30 5 C 4.7159 0.1816 0.0 0
M  V30 6 C 4.897 -1.5408 0.0 0
M  V30 7 C 4.3092 -0.7318 0.0 0
M  V30 8 N 3.3147 -0.8364 0.0 0
M  V30 9 N 2.6455 -0.0932 0.0 0
M  V30 10 C 2.8147 -1.7024 0.0 0
M  V30 11 C 1.732 -0.5 0.0 0
M  V30 12 N 3.1237 -2.6534 0.0 0
M  V30 13 C 1.8365 -1.4945 0.0 0
M  V30 14 C 0.866 0.0 0.0 0
M  V30 15 C 2.4546 -3.3966 0.0 0
M  V30 16 C 1.1674 -2.2376 0.0 0
M  V30 17 C 0.866 1.0 0.0 0
M  V30 18 C 0.0 -0.5 0.0 0
M  V30 19 C 1.4764 -3.1887 0.0 0
M  V30 20 C 2.7636 -4.3476 0.0 0
M  V30 21 C 0.1893 -2.0297 0.0 0
M  V30 22 O -0.1197 -1.0786 0.0 0
M  V30 23 O -0.4798 -2.7728 0.0 0
M  V30 END ATOM
M  V30 BEGIN BOND
M  V30 1 1 1 2
M  V30 2 2 2 3
M  V30 3 1 2 4
M  V30 4 1 3 5
M  V30 5 2 4 6
M  V30 6 2 5 7
M  V30 7 1 7 8
M  V30 8 1 8 9
M  V30 9 1 8 10
M  V30 10 2 9 11
M  V30 11 2 10 12
M  V30 12 1 10 13
M  V30 13 1 11 14
M  V30 14 1 12 15
M  V30 15 2 13 16
M  V30 16 1 14 17
M  V30 17 1 14 18
M  V30 18 2 15 19
M  V30 19 1 15 20
M  V30 20 1 16 21
M  V30 21 2 21 22
M  V30 22 1 21 23
M  V30 23 1 6 7
M  V30 24 1 11 13
M  V30 25 1 16 19
M  V30 END BOND
M  V30 END CTAB
M  END
>  <Molecule ChEMBL ID>
CHEMBL4454999

>  <Smiles>
Cc1cc(C(=O)O)c2c(C(C)C)nn(-c3ccc(Cl)cc3)c2n1

>  <IC50_nM>
4480

>  <Assay Description>
Displacement of fluormone pan-PPAR green from GST-tagged human PPARgamma ligand binding domain after 3 hrs by TR-FRET assay

$$$$
CHEMBL1092235
Actelion Java MolfileCreator 2.0

  0  0  0  0  0  0              0 V3000
M  V30 BEGIN CTAB
M  V30 COUNTS 36 39 0 0 0
M  V30 BEGIN ATOM
M  V30 1 Cl 12.0709 15.4123 0.0 0
M  V30 2 C 11.1892 14.1988 0.0 0
M  V30 3 C 9.6974 14.3556 0.0 0
M  V30 4 C 11.7993 12.8285 0.0 0
M  V30 5 C 8.8158 13.1421 0.0 0
M  V30 6 C 10.9176 11.6149 0.0 0
M  V30 7 C 9.4259 11.7717 0.0 0
M  V30 8 C 8.5442 10.5582 0.0 0
M  V30 9 O 7.0442 10.5582 0.0 0
M  V30 10 N 9.0077 9.1316 0.0 0
M  V30 11 C 6.5807 9.1316 0.0 0
M  V30 12 C 7.7942 8.25 0.0 0
M  V30 13 C 5.1541 8.6681 0.0 0
M  V30 14 C 7.7942 6.75 0.0 0
M  V30 15 O 6.4951 6.0 0.0 0
M  V30 16 C 6.4951 4.5 0.0 0
M  V30 17 C 5.1961 3.75 0.0 0
M  V30 18 C 7.7942 3.75 0.0 0
M  V30 19 C 5.1961 2.25 0.0 0
M  V30 20 C 7.7942 2.25 0.0 0
M  V30 21 C 6.4951 1.5 0.0 0
M  V30 22 C 3.8971 1.5 0.0 0
M  V30 23 N 3.8971 0.0 0.0 0
M  V30 24 C 5.1961 -0.75 0.0 0
M  V30 25 C 2.598 -0.75 0.0 0
M  V30 26 O 5.1961 -2.25 0.0 0
M  V30 27 O 6.4951 0.0 0.0 0
M  V30 28 C 1.299 0.0 0.0 0
M  V30 29 C 7.7942 -0.75 0.0 0
M  V30 30 O 1.299 1.5 0.0 0
M  V30 31 O 0.0 -0.75 0.0 0
M  V30 32 C 7.7942 -2.25 0.0 0
M  V30 33 C 9.0932 0.0 0.0 0
M  V30 34 C 9.0932 -3.0 0.0 0
M  V30 35 C 10.3923 -0.75 0.0 0
M  V30 36 C 10.3923 -2.25 0.0 0
M  V30 END ATOM
M  V30 BEGIN BOND
M  V30 1 1 1 2
M  V30 2 2 2 3
M  V30 3 1 2 4
M  V30 4 1 3 5
M  V30 5 2 4 6
M  V30 6 2 5 7
M  V30 7 1 7 8
M  V30 8 1 8 9
M  V30 9 2 8 10
M  V30 10 1 9 11
M  V30 11 1 10 12
M  V30 12 1 11 13
M  V30 13 1 12 14
M  V30 14 1 14 15
M  V30 15 1 15 16
M  V30 16 2 16 17
M  V30 17 1 16 18
M  V30 18 1 17 19
M  V30 19 2 18 20
M  V30 20 2 19 21
M  V30 21 1 19 22
M  V30 22 1 22 23
M  V30 23 1 23 24
M  V30 24 1 23 25
M  V30 25 2 24 26
M  V30 26 1 24 27
M  V30 27 1 25 28
M  V30 28 1 27 29
M  V30 29 2 28 30
M  V30 30 1 28 31
M  V30 31 1 29 32
M  V30 32 1 29 33
M  V30 33 1 32 34
M  V30 34 1 33 35
M  V30 35 1 34 36
M  V30 36 1 6 7
M  V30 37 2 11 12
M  V30 38 1 20 21
M  V30 39 1 35 36
M  V30 END BOND
M  V30 END CTAB
M  END
>  <Molecule ChEMBL ID>
CHEMBL1092235

>  <Smiles>
Cc1oc(-c2ccc(Cl)cc2)nc1COc1cccc(CN(CC(=O)O)C(=O)OC2CCCCC2)c1

>  <IC50_nM>
4498

>  <Assay Description>
Binding affinity to human His-tagged PPARgamma LBD (Q203-Y477) expressed in Escherichia coli BL21 (DE3) by fluorescence polarization assay

$$$$
CHEMBL178909
Actelion Java MolfileCreator 2.0

  0  0  0  0  0  0              0 V3000
M  V30 BEGIN CTAB
M  V30 COUNTS 34 38 0 0 0
M  V30 BEGIN ATOM
M  V30 1 Cl 6.0621 1.0 0.0 0
M  V30 2 C 6.0621 0.0 0.0 0
M  V30 3 C 5.1961 -0.5 0.0 0
M  V30 4 C 6.9282 -0.4999 0.0 0
M  V30 5 O 4.3301 0.0 0.0 0
M  V30 6 C 5.1961 -1.4999 0.0 0
M  V30 7 C 6.9282 -1.4999 0.0 0
M  V30 8 C 3.4641 -0.5 0.0 0
M  V30 9 C 6.0621 -1.9999 0.0 0
M  V30 10 C 7.7942 -1.9999 0.0 0
M  V30 11 C 2.598 0.0 0.0 0
M  V30 12 C 7.7942 -2.9999 0.0 0
M  V30 13 C 8.6602 -1.4999 0.0 0
M  V30 14 C 1.732 -0.5 0.0 0
M  V30 15 C 8.6602 -3.4999 0.0 0
M  V30 16 C 9.5262 -1.9999 0.0 0
M  V30 17 O 0.866 0.0 0.0 0
M  V30 18 C 9.5262 -2.9999 0.0 0
M  V30 19 C 0.0 -0.5 0.0 0
M  V30 20 C 10.0262 -3.866 0.0 0
M  V30 21 C 10.5262 -2.9999 0.0 0
M  V30 22 C -0.866 0.0 0.0 0
M  V30 23 C 0.0 -1.4999 0.0 0
M  V30 24 C -1.732 -0.4999 0.0 0
M  V30 25 C -0.866 -1.9999 0.0 0
M  V30 26 O -2.598 0.0 0.0 0
M  V30 27 C -1.732 -1.4999 0.0 0
M  V30 28 C -3.4641 -0.4999 0.0 0 CFG=1
M  V30 29 C -2.598 -1.9999 0.0 0
M  V30 30 C -4.3301 0.0 0.0 0
M  V30 31 C -3.4641 -1.4999 0.0 0
M  V30 32 C -4.3301 -0.9999 0.0 0
M  V30 33 O -5.1961 -0.4999 0.0 0
M  V30 34 O -4.3301 1.0 0.0 0
M  V30 END ATOM
M  V30 BEGIN BOND
M  V30 1 1 1 2
M  V30 2 2 2 3
M  V30 3 1 2 4
M  V30 4 1 3 5
M  V30 5 1 3 6
M  V30 6 2 4 7
M  V30 7 1 5 8
M  V30 8 2 6 9
M  V30 9 1 7 10
M  V30 10 1 8 11
M  V30 11 1 10 12
M  V30 12 1 10 13
M  V30 13 1 11 14
M  V30 14 1 12 15
M  V30 15 1 13 16
M  V30 16 1 14 17
M  V30 17 1 15 18
M  V30 18 1 17 19
M  V30 19 1 18 20
M  V30 20 1 18 21
M  V30 21 2 19 22
M  V30 22 1 19 23
M  V30 23 1 22 24
M  V30 24 2 23 25
M  V30 25 1 24 26
M  V30 26 2 24 27
M  V30 27 1 26 28
M  V30 28 1 27 29
M  V30 29 1 28 30
M  V30 30 1 28 31
M  V30 31 1 28 32 CFG=1
M  V30 32 2 30 33
M  V30 33 1 30 34
M  V30 34 1 7 9
M  V30 35 1 16 18
M  V30 36 1 20 21
M  V30 37 1 25 27
M  V30 38 1 29 31
M  V30 END BOND
M  V30 BEGIN COLLECTION
M  V30 MDLV30/STEABS ATOMS=(1 28)
M  V30 END COLLECTION
M  V30 END CTAB
M  END
>  <Molecule ChEMBL ID>
CHEMBL178909

>  <Smiles>
C[C@]1(C(=O)O)CCc2ccc(OCCCOc3ccc(C4CCC5(CC4)CC5)cc3Cl)cc2O1

>  <IC50_nM>
4500

>  <Assay Description>
In vitro binding affinity against human PPARgamma

$$$$
CHEMBL4847026
Actelion Java MolfileCreator 2.0

  0  0  0  0  0  0              0 V3000
M  V30 BEGIN CTAB
M  V30 COUNTS 31 33 0 0 0
M  V30 BEGIN ATOM
M  V30 1 Cl 10.3923 -0.75 0.0 0
M  V30 2 C 9.0932 0.0 0.0 0
M  V30 3 C 9.0932 1.4999 0.0 0
M  V30 4 C 7.7942 -0.75 0.0 0
M  V30 5 Cl 10.3923 2.2499 0.0 0
M  V30 6 C 7.7942 2.25 0.0 0
M  V30 7 C 6.4951 0.0 0.0 0
M  V30 8 C 6.4951 1.5 0.0 0
M  V30 9 C 5.1961 -0.75 0.0 0
M  V30 10 O 5.1961 -2.25 0.0 0
M  V30 11 C 3.8971 0.0 0.0 0
M  V30 12 N 2.598 -0.75 0.0 0
M  V30 13 C 2.598 -2.25 0.0 0
M  V30 14 C 1.299 0.0 0.0 0
M  V30 15 C 1.299 -3.0 0.0 0
M  V30 16 C 1.299 1.5 0.0 0
M  V30 17 C 1.299 -4.5 0.0 0
M  V30 18 C 0.0 -2.25 0.0 0
M  V30 19 C 0.0 2.2499 0.0 0
M  V30 20 C 2.598 2.25 0.0 0
M  V30 21 C 0.0 -5.25 0.0 0
M  V30 22 C -1.299 -3.0 0.0 0
M  V30 23 C 0.0 3.7499 0.0 0
M  V30 24 C 2.598 3.75 0.0 0
M  V30 25 C -1.299 -4.5 0.0 0
M  V30 26 C 1.299 4.5 0.0 0
M  V30 27 N -2.598 -5.25 0.0 0
M  V30 28 C -2.598 -6.75 0.0 0
M  V30 29 C -3.8971 -4.5 0.0 0
M  V30 30 C -1.299 -7.5 0.0 0
M  V30 31 C -3.8971 -3.0 0.0 0
M  V30 END ATOM
M  V30 BEGIN BOND
M  V30 1 1 1 2
M  V30 2 2 2 3
M  V30 3 1 2 4
M  V30 4 1 3 5
M  V30 5 1 3 6
M  V30 6 2 4 7
M  V30 7 2 6 8
M  V30 8 1 7 9
M  V30 9 2 9 10
M  V30 10 1 9 11
M  V30 11 1 11 12
M  V30 12 1 12 13
M  V30 13 1 12 14
M  V30 14 1 13 15
M  V30 15 1 14 16
M  V30 16 2 15 17
M  V30 17 1 15 18
M  V30 18 2 16 19
M  V30 19 1 16 20
M  V30 20 1 17 21
M  V30 21 2 18 22
M  V30 22 1 19 23
M  V30 23 2 20 24
M  V30 24 2 21 25
M  V30 25 2 23 26
M  V30 26 1 25 27
M  V30 27 1 27 28
M  V30 28 1 27 29
M  V30 29 1 28 30
M  V30 30 1 29 31
M  V30 31 1 7 8
M  V30 32 1 22 25
M  V30 33 1 24 26
M  V30 END BOND
M  V30 END CTAB
M  END
>  <Molecule ChEMBL ID>
CHEMBL4847026

>  <Smiles>
CCN(CC)c1ccc(CN(CC(=O)c2ccc(Cl)c(Cl)c2)Cc2ccccc2)cc1

>  <IC50_nM>
4500

>  <Assay Description>
Antagonist activity at PPARgamma (unknown origin) expressed in human LNCaP cells assessed as suppression of pioglitazone-induced PPAR response element driven firefly luciferase activity measured after 24 hrs by dual luciferase reporter assay

$$$$
CHEMBL65458
Actelion Java MolfileCreator 2.0

  0  0  0  0  0  0              0 V3000
M  V30 BEGIN CTAB
M  V30 COUNTS 29 31 0 0 0
M  V30 BEGIN ATOM
M  V30 1 Br 9.2605 -8.0349 0.0 0
M  V30 2 C 8.6504 -6.6646 0.0 0
M  V30 3 C 9.5321 -5.451 0.0 0
M  V30 4 C 7.1587 -6.5078 0.0 0
M  V30 5 C 8.922 -4.0807 0.0 0
M  V30 6 C 6.5486 -5.1375 0.0 0
M  V30 7 C 7.4302 -3.9239 0.0 0
M  V30 8 C 6.8201 -2.5536 0.0 0
M  V30 9 O 7.5701 -1.2546 0.0 0
M  V30 10 N 5.3529 -2.2417 0.0 0
M  V30 11 C 6.5664 -0.1398 0.0 0
M  V30 12 C 5.1961 -0.75 0.0 0
M  V30 13 C 6.8783 1.3273 0.0 0
M  V30 14 C 3.8971 0.0 0.0 0
M  V30 15 C 2.598 -0.75 0.0 0
M  V30 16 O 1.299 0.0 0.0 0
M  V30 17 C 0.0 -0.75 0.0 0
M  V30 18 C -1.299 0.0 0.0 0
M  V30 19 C 0.0 -2.25 0.0 0
M  V30 20 C -2.598 -0.75 0.0 0
M  V30 21 C -1.299 -3.0 0.0 0
M  V30 22 C -2.598 -2.25 0.0 0
M  V30 23 O -3.8971 -3.0 0.0 0
M  V30 24 C -3.8971 -4.5 0.0 0
M  V30 25 C -5.1961 -5.25 0.0 0
M  V30 26 C -3.1471 -5.799 0.0 0
M  V30 27 C -2.3971 -4.4999 0.0 0
M  V30 28 O -6.4951 -4.5 0.0 0
M  V30 29 O -5.1961 -6.75 0.0 0
M  V30 END ATOM
M  V30 BEGIN BOND
M  V30 1 1 1 2
M  V30 2 2 2 3
M  V30 3 1 2 4
M  V30 4 1 3 5
M  V30 5 2 4 6
M  V30 6 2 5 7
M  V30 7 1 7 8
M  V30 8 1 8 9
M  V30 9 2 8 10
M  V30 10 1 9 11
M  V30 11 1 10 12
M  V30 12 1 11 13
M  V30 13 1 12 14
M  V30 14 1 14 15
M  V30 15 1 15 16
M  V30 16 1 16 17
M  V30 17 2 17 18
M  V30 18 1 17 19
M  V30 19 1 18 20
M  V30 20 2 19 21
M  V30 21 2 20 22
M  V30 22 1 22 23
M  V30 23 1 23 24
M  V30 24 1 24 25
M  V30 25 1 24 26
M  V30 26 1 24 27
M  V30 27 2 25 28
M  V30 28 1 25 29
M  V30 29 1 6 7
M  V30 30 2 11 12
M  V30 31 1 21 22
M  V30 END BOND
M  V30 END CTAB
M  END
>  <Molecule ChEMBL ID>
CHEMBL65458

>  <Smiles>
Cc1oc(-c2ccc(Br)cc2)nc1CCOc1ccc(OC(C)(C)C(=O)O)cc1

>  <IC50_nM>
4556

>  <Assay Description>
Binding affinity at human peroxidase proliferator activated receptor gamma (hPPARgamma)

$$$$
CHEMBL394968
Actelion Java MolfileCreator 2.0

  0  0  0  0  0  0              0 V3000
M  V30 BEGIN CTAB
M  V30 COUNTS 37 40 0 0 0
M  V30 BEGIN ATOM
M  V30 1 O 6.9282 -0.5 0.0 0
M  V30 2 C 6.0621 0.0 0.0 0
M  V30 3 O 6.0621 0.9999 0.0 0
M  V30 4 C 5.1961 -0.5 0.0 0
M  V30 5 N 4.3301 0.0 0.0 0
M  V30 6 C 4.3301 1.0 0.0 0
M  V30 7 C 3.4641 -0.5 0.0 0
M  V30 8 C 3.4641 1.5 0.0 0
M  V30 9 C 2.598 0.0 0.0 0
M  V30 10 C 3.4641 2.5 0.0 0
M  V30 11 C 2.598 1.0 0.0 0
M  V30 12 O 1.732 -0.5 0.0 0
M  V30 13 C 2.598 3.0 0.0 0
M  V30 14 C 1.732 1.5 0.0 0
M  V30 15 C 0.866 0.0 0.0 0
M  V30 16 C 1.732 2.5 0.0 0
M  V30 17 C 0.0 -0.5 0.0 0
M  V30 18 O 0.866 3.0 0.0 0
M  V30 19 C -0.866 0.0 0.0 0
M  V30 20 C 0.0 -1.4999 0.0 0
M  V30 21 C 0.0 2.5 0.0 0
M  V30 22 C -1.732 -0.4999 0.0 0
M  V30 23 C -0.866 -1.9999 0.0 0
M  V30 24 C -0.866 3.0 0.0 0
M  V30 25 C -1.732 -1.4999 0.0 0
M  V30 26 C -1.732 2.5 0.0 0
M  V30 27 N -2.6455 2.9067 0.0 0
M  V30 28 C -1.8365 1.5054 0.0 0
M  V30 29 C -3.3147 2.1635 0.0 0
M  V30 30 O -2.8147 1.2975 0.0 0
M  V30 31 C -1.0934 0.8363 0.0 0
M  V30 32 C -4.3092 2.2681 0.0 0
M  V30 33 C -4.7159 3.1816 0.0 0
M  V30 34 C -4.897 1.4591 0.0 0
M  V30 35 C -5.7105 3.2861 0.0 0
M  V30 36 C -5.8915 1.5636 0.0 0
M  V30 37 C -6.2982 2.4771 0.0 0
M  V30 END ATOM
M  V30 BEGIN BOND
M  V30 1 2 1 2
M  V30 2 1 2 3
M  V30 3 1 2 4
M  V30 4 1 4 5
M  V30 5 1 5 6
M  V30 6 1 5 7
M  V30 7 1 6 8
M  V30 8 1 7 9
M  V30 9 2 8 10
M  V30 10 1 8 11
M  V30 11 1 9 12
M  V30 12 1 10 13
M  V30 13 2 11 14
M  V30 14 1 12 15
M  V30 15 2 13 16
M  V30 16 1 15 17
M  V30 17 1 16 18
M  V30 18 2 17 19
M  V30 19 1 17 20
M  V30 20 1 18 21
M  V30 21 1 19 22
M  V30 22 2 20 23
M  V30 23 1 21 24
M  V30 24 2 22 25
M  V30 25 1 24 26
M  V30 26 1 26 27
M  V30 27 2 26 28
M  V30 28 2 27 29
M  V30 29 1 28 30
M  V30 30 1 28 31
M  V30 31 1 29 32
M  V30 32 2 32 33
M  V30 33 1 32 34
M  V30 34 1 33 35
M  V30 35 2 34 36
M  V30 36 2 35 37
M  V30 37 1 14 16
M  V30 38 1 23 25
M  V30 39 1 29 30
M  V30 40 1 36 37
M  V30 END BOND
M  V30 END CTAB
M  END
>  <Molecule ChEMBL ID>
CHEMBL394968

>  <Smiles>
Cc1oc(-c2ccccc2)nc1CCOc1ccc(CN(CCOCc2ccccc2)CC(=O)O)cc1

>  <IC50_nM>
4560

>  <Assay Description>
Displacement of fluorescein labeled ligand from PPARgamma receptor by fluorescence polarization assay

$$$$
CHEMBL427040
Actelion Java MolfileCreator 2.0

  0  0  0  0  0  0              0 V3000
M  V30 BEGIN CTAB
M  V30 COUNTS 33 35 0 0 0
M  V30 BEGIN ATOM
M  V30 1 F 9.1393 -2.451 0.0 0
M  V30 2 C 8.1882 -2.76 0.0 0
M  V30 3 F 8.4972 -3.7111 0.0 0
M  V30 4 F 7.2372 -3.069 0.0 0
M  V30 5 C 7.8792 -1.809 0.0 0
M  V30 6 N 8.467 -1.0 0.0 0
M  V30 7 C 6.9282 -1.5 0.0 0
M  V30 8 O 7.8792 -0.1909 0.0 0
M  V30 9 C 6.9282 -0.5 0.0 0
M  V30 10 C 6.0621 -2.0 0.0 0
M  V30 11 C 6.0621 0.0 0.0 0
M  V30 12 C 5.1961 -1.4999 0.0 0
M  V30 13 C 5.1961 -0.5 0.0 0
M  V30 14 C 6.0621 0.9999 0.0 0
M  V30 15 O 4.3301 0.0 0.0 0
M  V30 16 C 6.9282 1.4999 0.0 0
M  V30 17 C 3.4641 -0.5 0.0 0
M  V30 18 C 6.9282 2.4999 0.0 0
M  V30 19 C 2.598 0.0 0.0 0
M  V30 20 C 1.732 -0.5 0.0 0
M  V30 21 N 0.866 0.0 0.0 0
M  V30 22 C 0.866 1.0 0.0 0
M  V30 23 C 0.0 -0.5 0.0 0
M  V30 24 C 1.732 1.5 0.0 0
M  V30 25 C 0.0 1.4999 0.0 0
M  V30 26 C 1.732 2.5 0.0 0
M  V30 27 C 0.0 2.4999 0.0 0
M  V30 28 C 0.866 3.0 0.0 0
M  V30 29 C 2.598 3.0 0.0 0
M  V30 30 C 0.866 3.9999 0.0 0
M  V30 31 C 1.732 4.5 0.0 0
M  V30 32 O 2.598 4.0 0.0 0
M  V30 33 O 1.732 5.5 0.0 0
M  V30 END ATOM
M  V30 BEGIN BOND
M  V30 1 1 1 2
M  V30 2 1 2 3
M  V30 3 1 2 4
M  V30 4 1 2 5
M  V30 5 2 5 6
M  V30 6 1 5 7
M  V30 7 1 6 8
M  V30 8 2 7 9
M  V30 9 1 7 10
M  V30 10 1 9 11
M  V30 11 2 10 12
M  V30 12 2 11 13
M  V30 13 1 11 14
M  V30 14 1 13 15
M  V30 15 1 14 16
M  V30 16 1 15 17
M  V30 17 1 16 18
M  V30 18 1 17 19
M  V30 19 1 19 20
M  V30 20 1 20 21
M  V30 21 1 21 22
M  V30 22 1 21 23
M  V30 23 2 22 24
M  V30 24 1 22 25
M  V30 25 1 24 26
M  V30 26 2 25 27
M  V30 27 2 26 28
M  V30 28 1 26 29
M  V30 29 1 28 30
M  V30 30 1 30 31
M  V30 31 2 31 32
M  V30 32 1 31 33
M  V30 33 1 8 9
M  V30 34 1 12 13
M  V30 35 1 27 28
M  V30 END BOND
M  V30 END CTAB
M  END
>  <Molecule ChEMBL ID>
CHEMBL427040

>  <Smiles>
CCCc1c(OCCCN(C)c2ccc(CC(=O)O)c(C)c2)ccc2c(C(F)(F)F)noc12

>  <IC50_nM>
4600

>  <Assay Description>
Inhibition of PPAR gamma

$$$$
CHEMBL427040
Actelion Java MolfileCreator 2.0

  0  0  0  0  0  0              0 V3000
M  V30 BEGIN CTAB
M  V30 COUNTS 33 35 0 0 0
M  V30 BEGIN ATOM
M  V30 1 F 9.1393 -2.451 0.0 0
M  V30 2 C 8.1882 -2.76 0.0 0
M  V30 3 F 8.4972 -3.7111 0.0 0
M  V30 4 F 7.2372 -3.069 0.0 0
M  V30 5 C 7.8792 -1.809 0.0 0
M  V30 6 N 8.467 -1.0 0.0 0
M  V30 7 C 6.9282 -1.5 0.0 0
M  V30 8 O 7.8792 -0.1909 0.0 0
M  V30 9 C 6.9282 -0.5 0.0 0
M  V30 10 C 6.0621 -2.0 0.0 0
M  V30 11 C 6.0621 0.0 0.0 0
M  V30 12 C 5.1961 -1.4999 0.0 0
M  V30 13 C 5.1961 -0.5 0.0 0
M  V30 14 C 6.0621 0.9999 0.0 0
M  V30 15 O 4.3301 0.0 0.0 0
M  V30 16 C 6.9282 1.4999 0.0 0
M  V30 17 C 3.4641 -0.5 0.0 0
M  V30 18 C 6.9282 2.4999 0.0 0
M  V30 19 C 2.598 0.0 0.0 0
M  V30 20 C 1.732 -0.5 0.0 0
M  V30 21 N 0.866 0.0 0.0 0
M  V30 22 C 0.866 1.0 0.0 0
M  V30 23 C 0.0 -0.5 0.0 0
M  V30 24 C 1.732 1.5 0.0 0
M  V30 25 C 0.0 1.4999 0.0 0
M  V30 26 C 1.732 2.5 0.0 0
M  V30 27 C 0.0 2.4999 0.0 0
M  V30 28 C 0.866 3.0 0.0 0
M  V30 29 C 2.598 3.0 0.0 0
M  V30 30 C 0.866 3.9999 0.0 0
M  V30 31 C 1.732 4.5 0.0 0
M  V30 32 O 2.598 4.0 0.0 0
M  V30 33 O 1.732 5.5 0.0 0
M  V30 END ATOM
M  V30 BEGIN BOND
M  V30 1 1 1 2
M  V30 2 1 2 3
M  V30 3 1 2 4
M  V30 4 1 2 5
M  V30 5 2 5 6
M  V30 6 1 5 7
M  V30 7 1 6 8
M  V30 8 2 7 9
M  V30 9 1 7 10
M  V30 10 1 9 11
M  V30 11 2 10 12
M  V30 12 2 11 13
M  V30 13 1 11 14
M  V30 14 1 13 15
M  V30 15 1 14 16
M  V30 16 1 15 17
M  V30 17 1 16 18
M  V30 18 1 17 19
M  V30 19 1 19 20
M  V30 20 1 20 21
M  V30 21 1 21 22
M  V30 22 1 21 23
M  V30 23 2 22 24
M  V30 24 1 22 25
M  V30 25 1 24 26
M  V30 26 2 25 27
M  V30 27 2 26 28
M  V30 28 1 26 29
M  V30 29 1 28 30
M  V30 30 1 30 31
M  V30 31 2 31 32
M  V30 32 1 31 33
M  V30 33 1 8 9
M  V30 34 1 12 13
M  V30 35 1 27 28
M  V30 END BOND
M  V30 END CTAB
M  END
>  <Molecule ChEMBL ID>
CHEMBL427040

>  <Smiles>
CCCc1c(OCCCN(C)c2ccc(CC(=O)O)c(C)c2)ccc2c(C(F)(F)F)noc12

>  <IC50_nM>
4602.57

>  <Assay Description>
Agonist activity at PPARgamma

$$$$
CHEMBL366207
Actelion Java MolfileCreator 2.0

  0  0  0  0  0  0              0 V3000
M  V30 BEGIN CTAB
M  V30 COUNTS 31 33 0 0 0
M  V30 BEGIN ATOM
M  V30 1 O 10.4701 -2.2668 0.0 0
M  V30 2 C 9.1614 -3.0224 0.0 0
M  V30 3 C 7.8526 -2.2668 0.0 0
M  V30 4 C 9.1614 -4.5337 0.0 0
M  V30 5 C 7.8526 -0.7556 0.0 0
M  V30 6 C 6.5438 -3.0224 0.0 0
M  V30 7 C 7.8526 -5.2893 0.0 0
M  V30 8 C 10.4701 -5.2893 0.0 0
M  V30 9 C 6.5438 0.0 0.0 0
M  V30 10 C 5.235 -2.2668 0.0 0
M  V30 11 C 7.8526 -6.8005 0.0 0
M  V30 12 C 10.4701 -6.8005 0.0 0
M  V30 13 C 5.235 -0.7556 0.0 0
M  V30 14 C 6.5438 1.5112 0.0 0
M  V30 15 C 4.115 -2.9779 0.0 0
M  V30 16 C 9.1614 -7.5562 0.0 0
M  V30 17 O 3.9263 0.0 0.0 0
M  V30 18 C 7.8526 2.2668 0.0 0
M  V30 19 C 3.9263 -4.5337 0.0 0
M  V30 20 C 2.6175 -0.7556 0.0 0 CFG=2
M  V30 21 C 7.8526 3.7781 0.0 0
M  V30 22 C 2.6175 -5.2893 0.0 0
M  V30 23 C 1.3087 0.0 0.0 0
M  V30 24 C 2.6175 -2.2668 0.0 0
M  V30 25 C 0.0 -0.7556 0.0 0
M  V30 26 C 1.3087 1.5112 0.0 0
M  V30 27 O 3.5684 -3.1069 0.0 0
M  V30 28 O 1.3087 -3.0224 0.0 0
M  V30 29 C -1.3087 0.0 0.0 0
M  V30 30 C 0.0 2.2668 0.0 0
M  V30 31 C -1.3087 1.5112 0.0 0
M  V30 END ATOM
M  V30 BEGIN BOND
M  V30 1 2 1 2
M  V30 2 1 2 3
M  V30 3 1 2 4
M  V30 4 2 3 5
M  V30 5 1 3 6
M  V30 6 2 4 7
M  V30 7 1 4 8
M  V30 8 1 5 9
M  V30 9 2 6 10
M  V30 10 1 7 11
M  V30 11 2 8 12
M  V30 12 2 9 13
M  V30 13 1 9 14
M  V30 14 1 10 15
M  V30 15 2 11 16
M  V30 16 1 13 17
M  V30 17 1 14 18
M  V30 18 1 15 19
M  V30 19 1 20 17 CFG=1
M  V30 20 1 18 21
M  V30 21 1 19 22
M  V30 22 1 20 23
M  V30 23 1 20 24
M  V30 24 2 23 25
M  V30 25 1 23 26
M  V30 26 2 24 27
M  V30 27 1 24 28
M  V30 28 1 25 29
M  V30 29 2 26 30
M  V30 30 2 29 31
M  V30 31 1 10 13
M  V30 32 1 12 16
M  V30 33 1 30 31
M  V30 END BOND
M  V30 BEGIN COLLECTION
M  V30 MDLV30/STERAC1 ATOMS=(1 20)
M  V30 END COLLECTION
M  V30 END CTAB
M  END
>  <Molecule ChEMBL ID>
CHEMBL366207

>  <Smiles>
CCCc1cc(C(=O)c2ccccc2)cc(CCC)c1OC(C(=O)O)c1ccccc1

>  <IC50_nM>
4680

>  <Assay Description>
In vitro binding affinity for human PPAR gamma

$$$$
CHEMBL178321
Actelion Java MolfileCreator 2.0

  0  0  0  0  0  0              0 V3000
M  V30 BEGIN CTAB
M  V30 COUNTS 31 34 0 0 0
M  V30 BEGIN ATOM
M  V30 1 Cl 6.4951 -3.0 0.0 0
M  V30 2 C 5.1961 -2.25 0.0 0
M  V30 3 C 5.1961 -0.75 0.0 0
M  V30 4 C 3.8971 -2.9999 0.0 0
M  V30 5 C 3.8971 0.0 0.0 0
M  V30 6 C 2.598 -2.25 0.0 0
M  V30 7 C 2.598 -0.75 0.0 0
M  V30 8 C 1.299 0.0 0.0 0
M  V30 9 O 1.299 1.5 0.0 0
M  V30 10 N 0.0 -0.75 0.0 0
M  V30 11 C -1.3703 -0.1398 0.0 0
M  V30 12 C -0.1567 -2.2417 0.0 0
M  V30 13 C -2.374 -1.2546 0.0 0
M  V30 14 C -1.8338 1.2866 0.0 0
M  V30 15 C -1.624 -2.5536 0.0 0
M  V30 16 C 0.9579 -3.2454 0.0 0
M  V30 17 C -3.8412 -0.9427 0.0 0
M  V30 18 C -3.301 1.5985 0.0 0
M  V30 19 C -2.2341 -3.9239 0.0 0
M  V30 20 C -4.3047 0.4838 0.0 0
M  V30 21 C -1.3524 -5.1374 0.0 0
M  V30 22 O -5.7719 0.7957 0.0 0
M  V30 23 C -1.9625 -6.5078 0.0 0
M  V30 24 C 0.1393 -4.9807 0.0 0
M  V30 25 C -6.7756 -0.319 0.0 0
M  V30 26 C -1.0808 -7.7213 0.0 0
M  V30 27 C 1.021 -6.1942 0.0 0
M  V30 28 C 0.4109 -7.5645 0.0 0
M  V30 29 C 1.2925 -8.778 0.0 0
M  V30 30 O 0.6824 -10.1483 0.0 0
M  V30 31 O 2.7843 -8.6212 0.0 0
M  V30 END ATOM
M  V30 BEGIN BOND
M  V30 1 1 1 2
M  V30 2 2 2 3
M  V30 3 1 2 4
M  V30 4 1 3 5
M  V30 5 2 4 6
M  V30 6 2 5 7
M  V30 7 1 7 8
M  V30 8 2 8 9
M  V30 9 1 8 10
M  V30 10 1 10 11
M  V30 11 1 10 12
M  V30 12 2 11 13
M  V30 13 1 11 14
M  V30 14 2 12 15
M  V30 15 1 12 16
M  V30 16 1 13 17
M  V30 17 2 14 18
M  V30 18 1 15 19
M  V30 19 2 17 20
M  V30 20 1 19 21
M  V30 21 1 20 22
M  V30 22 2 21 23
M  V30 23 1 21 24
M  V30 24 1 22 25
M  V30 25 1 23 26
M  V30 26 2 24 27
M  V30 27 2 26 28
M  V30 28 1 28 29
M  V30 29 2 29 30
M  V30 30 1 29 31
M  V30 31 1 6 7
M  V30 32 1 13 15
M  V30 33 1 18 20
M  V30 34 1 27 28
M  V30 END BOND
M  V30 END CTAB
M  END
>  <Molecule ChEMBL ID>
CHEMBL178321

>  <Smiles>
COc1ccc2c(c1)c(Cc1ccc(C(=O)O)cc1)c(C)n2C(=O)c1ccc(Cl)cc1

>  <IC50_nM>
4690

>  <Assay Description>
In vitro inhibition of human Peroxisome proliferator activated receptor gamma

$$$$
CHEMBL112973
Actelion Java MolfileCreator 2.0

  0  0  0  0  0  0              0 V3000
M  V30 BEGIN CTAB
M  V30 COUNTS 34 37 0 0 0
M  V30 BEGIN ATOM
M  V30 1 F 6.0621 1.0 0.0 0
M  V30 2 C 6.0621 0.0 0.0 0
M  V30 3 C 5.1961 -0.5 0.0 0
M  V30 4 C 6.9282 -0.4999 0.0 0
M  V30 5 O 4.3301 0.0 0.0 0
M  V30 6 C 5.1961 -1.4999 0.0 0
M  V30 7 C 6.9282 -1.4999 0.0 0
M  V30 8 C 3.4641 -0.5 0.0 0
M  V30 9 C 6.0621 -1.9999 0.0 0
M  V30 10 O 7.7942 -1.9999 0.0 0
M  V30 11 C 2.598 0.0 0.0 0
M  V30 12 C 8.6602 -1.4999 0.0 0
M  V30 13 C 1.732 -0.5 0.0 0
M  V30 14 C 9.5262 -1.9999 0.0 0
M  V30 15 C 8.6602 -0.4999 0.0 0
M  V30 16 O 0.866 0.0 0.0 0
M  V30 17 C 10.3923 -1.4999 0.0 0
M  V30 18 C 9.5262 0.0 0.0 0
M  V30 19 C 0.0 -0.5 0.0 0
M  V30 20 C 10.3923 -0.5 0.0 0
M  V30 21 C -0.866 0.0 0.0 0
M  V30 22 C 0.0 -1.4999 0.0 0
M  V30 23 C -1.732 -0.4999 0.0 0
M  V30 24 C -0.866 -1.9999 0.0 0
M  V30 25 O -2.598 0.0 0.0 0
M  V30 26 C -1.732 -1.4999 0.0 0
M  V30 27 C -3.4641 -0.4999 0.0 0 CFG=2
M  V30 28 C -2.598 -1.9999 0.0 0
M  V30 29 C -3.4641 0.5 0.0 0
M  V30 30 C -3.4641 -1.4999 0.0 0
M  V30 31 C -4.3301 0.0 0.0 0
M  V30 32 O -4.3301 1.0 0.0 0
M  V30 33 O -2.598 1.0 0.0 0
M  V30 34 C -5.1961 -0.4999 0.0 0
M  V30 END ATOM
M  V30 BEGIN BOND
M  V30 1 1 1 2
M  V30 2 2 2 3
M  V30 3 1 2 4
M  V30 4 1 3 5
M  V30 5 1 3 6
M  V30 6 2 4 7
M  V30 7 1 5 8
M  V30 8 2 6 9
M  V30 9 1 7 10
M  V30 10 1 8 11
M  V30 11 1 10 12
M  V30 12 1 11 13
M  V30 13 2 12 14
M  V30 14 1 12 15
M  V30 15 1 13 16
M  V30 16 1 14 17
M  V30 17 2 15 18
M  V30 18 1 16 19
M  V30 19 2 17 20
M  V30 20 2 19 21
M  V30 21 1 19 22
M  V30 22 1 21 23
M  V30 23 2 22 24
M  V30 24 1 23 25
M  V30 25 2 23 26
M  V30 26 1 25 27
M  V30 27 1 26 28
M  V30 28 1 27 29 CFG=1
M  V30 29 1 27 30
M  V30 30 1 27 31
M  V30 31 2 29 32
M  V30 32 1 29 33
M  V30 33 1 31 34
M  V30 34 1 7 9
M  V30 35 1 18 20
M  V30 36 1 24 26
M  V30 37 1 28 30
M  V30 END BOND
M  V30 BEGIN COLLECTION
M  V30 MDLV30/STERAC1 ATOMS=(1 27)
M  V30 END COLLECTION
M  V30 END CTAB
M  END
>  <Molecule ChEMBL ID>
CHEMBL112973

>  <Smiles>
CCC1(C(=O)O)CCc2ccc(OCCCOc3ccc(Oc4ccccc4)cc3F)cc2O1

>  <IC50_nM>
4700

>  <Assay Description>
In vitro binding affinity for human peroxisome proliferator activated receptor gamma using scintillation proximity assay (SPA)

$$$$
CHEMBL4467078
Actelion Java MolfileCreator 2.0

  0  0  0  0  0  0              0 V3000
M  V30 BEGIN CTAB
M  V30 COUNTS 42 45 0 0 0
M  V30 BEGIN ATOM
M  V30 1 F 8.8923 12.75 0.0 0
M  V30 2 C 10.3923 12.7499 0.0 0
M  V30 3 F 10.3923 14.25 0.0 0
M  V30 4 F 11.8923 12.7499 0.0 0
M  V30 5 C 10.3923 11.25 0.0 0
M  V30 6 N 9.0932 10.5 0.0 0
M  V30 7 C 11.6913 10.4999 0.0 0
M  V30 8 C 9.0932 8.9999 0.0 0
M  V30 9 C 11.6913 8.9999 0.0 0
M  V30 10 C 10.3923 8.25 0.0 0
M  V30 11 C 7.7942 8.25 0.0 0
M  V30 12 O 12.9903 8.2499 0.0 0
M  V30 13 C 10.3923 6.75 0.0 0
M  V30 14 C 7.7942 6.75 0.0 0
M  V30 15 C 14.2894 8.9999 0.0 0
M  V30 16 C 9.0932 5.9999 0.0 0
M  V30 17 C 9.0932 4.4999 0.0 0
M  V30 18 O 7.7942 3.75 0.0 0
M  V30 19 C 7.7942 2.25 0.0 0
M  V30 20 C 6.4951 1.5 0.0 0
M  V30 21 C 9.0932 1.4999 0.0 0
M  V30 22 C 6.4951 0.0 0.0 0
M  V30 23 C 9.0932 0.0 0.0 0
M  V30 24 C 7.7942 -0.75 0.0 0
M  V30 25 C 5.1961 -0.75 0.0 0
M  V30 26 O 7.7942 -2.25 0.0 0
M  V30 27 C 3.8971 0.0 0.0 0
M  V30 28 C 9.0932 -3.0 0.0 0
M  V30 29 C 2.598 -0.75 0.0 0
M  V30 30 C 3.8971 1.4999 0.0 0
M  V30 31 C 9.0932 -4.5 0.0 0
M  V30 32 O 2.598 -2.25 0.0 0
M  V30 33 O 1.299 0.0 0.0 0
M  V30 34 C 2.598 2.2499 0.0 0
M  V30 35 N 10.3923 -5.25 0.0 0
M  V30 36 C 2.598 3.75 0.0 0
M  V30 37 C 10.3923 -6.75 0.0 0
M  V30 38 C 11.6913 -4.5 0.0 0
M  V30 39 C 11.6913 -7.5 0.0 0
M  V30 40 C 12.9903 -5.25 0.0 0
M  V30 41 N 12.9903 -6.75 0.0 0
M  V30 42 C 14.2894 -7.5 0.0 0
M  V30 END ATOM
M  V30 BEGIN BOND
M  V30 1 1 1 2
M  V30 2 1 2 3
M  V30 3 1 2 4
M  V30 4 1 2 5
M  V30 5 2 5 6
M  V30 6 1 5 7
M  V30 7 1 6 8
M  V30 8 2 7 9
M  V30 9 1 8 10
M  V30 10 2 8 11
M  V30 11 1 9 12
M  V30 12 2 10 13
M  V30 13 1 11 14
M  V30 14 1 12 15
M  V30 15 1 13 16
M  V30 16 1 16 17
M  V30 17 1 17 18
M  V30 18 1 18 19
M  V30 19 2 19 20
M  V30 20 1 19 21
M  V30 21 1 20 22
M  V30 22 2 21 23
M  V30 23 2 22 24
M  V30 24 1 22 25
M  V30 25 1 24 26
M  V30 26 2 25 27
M  V30 27 1 26 28
M  V30 28 1 27 29
M  V30 29 1 27 30
M  V30 30 1 28 31
M  V30 31 2 29 32
M  V30 32 1 29 33
M  V30 33 1 30 34
M  V30 34 1 31 35
M  V30 35 1 34 36
M  V30 36 1 35 37
M  V30 37 1 35 38
M  V30 38 1 37 39
M  V30 39 1 38 40
M  V30 40 1 39 41
M  V30 41 1 41 42
M  V30 42 1 9 10
M  V30 43 2 14 16
M  V30 44 1 23 24
M  V30 45 1 40 41
M  V30 END BOND
M  V30 END CTAB
M  END
>  <Molecule ChEMBL ID>
CHEMBL4467078

>  <Smiles>
CCC/C(=C\c1cc(OCc2ccc3nc(C(F)(F)F)cc(OC)c3c2)ccc1OCCN1CCN(C)CC1)C(=O)O

>  <IC50_nM>
4700

>  <Assay Description>
Antagonist actvity in pFA-GAL4-DBD fused PPARgamma LBD (unknown origin) transfected in HEK293T cells assessed as inhibition of rosiglitazone-induced PPARgamma transactivation incubated for 24 hrs by luciferase reporter gene assay

$$$$
CHEMBL4557705
Actelion Java MolfileCreator 2.0

  0  0  0  0  0  0              0 V3000
M  V30 BEGIN CTAB
M  V30 COUNTS 40 43 0 0 0
M  V30 BEGIN ATOM
M  V30 1 F 8.8923 12.75 0.0 0
M  V30 2 C 10.3923 12.7499 0.0 0
M  V30 3 F 10.3923 14.25 0.0 0
M  V30 4 F 11.8923 12.7499 0.0 0
M  V30 5 C 10.3923 11.25 0.0 0
M  V30 6 N 9.0932 10.5 0.0 0
M  V30 7 C 11.6913 10.4999 0.0 0
M  V30 8 C 9.0932 8.9999 0.0 0
M  V30 9 C 11.6913 8.9999 0.0 0
M  V30 10 C 10.3923 8.25 0.0 0
M  V30 11 C 7.7942 8.25 0.0 0
M  V30 12 O 12.9903 8.2499 0.0 0
M  V30 13 C 10.3923 6.75 0.0 0
M  V30 14 C 7.7942 6.75 0.0 0
M  V30 15 C 14.2894 8.9999 0.0 0
M  V30 16 C 9.0932 5.9999 0.0 0
M  V30 17 C 9.0932 4.4999 0.0 0
M  V30 18 O 7.7942 3.75 0.0 0
M  V30 19 C 7.7942 2.25 0.0 0
M  V30 20 C 6.4951 1.5 0.0 0
M  V30 21 C 9.0932 1.4999 0.0 0
M  V30 22 C 6.4951 0.0 0.0 0
M  V30 23 C 9.0932 0.0 0.0 0
M  V30 24 C 7.7942 -0.75 0.0 0
M  V30 25 C 5.1961 -0.75 0.0 0
M  V30 26 O 7.7942 -2.25 0.0 0
M  V30 27 C 3.8971 0.0 0.0 0
M  V30 28 C 6.4951 -3.0 0.0 0
M  V30 29 C 2.598 -0.75 0.0 0
M  V30 30 C 3.8971 1.4999 0.0 0
M  V30 31 C 6.4951 -4.5 0.0 0
M  V30 32 O 2.598 -2.25 0.0 0
M  V30 33 O 1.299 0.0 0.0 0
M  V30 34 C 2.598 2.2499 0.0 0
M  V30 35 C 5.1961 -5.2499 0.0 0
M  V30 36 C 7.7942 -5.25 0.0 0
M  V30 37 C 2.598 3.75 0.0 0
M  V30 38 C 5.1961 -6.7499 0.0 0
M  V30 39 C 7.7942 -6.75 0.0 0
M  V30 40 N 6.4951 -7.5 0.0 0
M  V30 END ATOM
M  V30 BEGIN BOND
M  V30 1 1 1 2
M  V30 2 1 2 3
M  V30 3 1 2 4
M  V30 4 1 2 5
M  V30 5 2 5 6
M  V30 6 1 5 7
M  V30 7 1 6 8
M  V30 8 2 7 9
M  V30 9 1 8 10
M  V30 10 2 8 11
M  V30 11 1 9 12
M  V30 12 2 10 13
M  V30 13 1 11 14
M  V30 14 1 12 15
M  V30 15 1 13 16
M  V30 16 1 16 17
M  V30 17 1 17 18
M  V30 18 1 18 19
M  V30 19 2 19 20
M  V30 20 1 19 21
M  V30 21 1 20 22
M  V30 22 2 21 23
M  V30 23 2 22 24
M  V30 24 1 22 25
M  V30 25 1 24 26
M  V30 26 2 25 27
M  V30 27 1 26 28
M  V30 28 1 27 29
M  V30 29 1 27 30
M  V30 30 1 28 31
M  V30 31 2 29 32
M  V30 32 1 29 33
M  V30 33 1 30 34
M  V30 34 2 31 35
M  V30 35 1 31 36
M  V30 36 1 34 37
M  V30 37 1 35 38
M  V30 38 2 36 39
M  V30 39 2 38 40
M  V30 40 1 9 10
M  V30 41 2 14 16
M  V30 42 1 23 24
M  V30 43 1 39 40
M  V30 END BOND
M  V30 END CTAB
M  END
>  <Molecule ChEMBL ID>
CHEMBL4557705

>  <Smiles>
CCC/C(=C\c1cc(OCc2ccc3nc(C(F)(F)F)cc(OC)c3c2)ccc1OCc1ccncc1)C(=O)O

>  <IC50_nM>
4700

>  <Assay Description>
Antagonist actvity in pFA-GAL4-DBD fused PPARgamma LBD (unknown origin) transfected in HEK293T cells assessed as inhibition of rosiglitazone-induced PPARgamma transactivation incubated for 24 hrs by luciferase reporter gene assay

$$$$
CHEMBL474148
Actelion Java MolfileCreator 2.0

  0  0  0  0  0  0              0 V3000
M  V30 BEGIN CTAB
M  V30 COUNTS 36 40 0 0 0
M  V30 BEGIN ATOM
M  V30 1 O 5.3463 2.9261 0.0 0
M  V30 2 C 6.4627 1.921 0.0 0
M  V30 3 O 6.0957 0.5212 0.0 0
M  V30 4 C 7.8914 2.3852 0.0 0
M  V30 5 C 9.1067 1.5022 0.0 0
M  V30 6 C 8.3556 3.8139 0.0 0
M  V30 7 N 10.3221 2.3852 0.0 0
M  V30 8 C 9.1067 0.0 0.0 0
M  V30 9 N 9.8579 3.8139 0.0 0
M  V30 10 C 11.7508 1.921 0.0 0
M  V30 11 C 7.8058 -0.7511 0.0 0
M  V30 12 C 12.0631 0.4516 0.0 0
M  V30 13 C 12.8672 2.9261 0.0 0
M  V30 14 C 6.5321 -0.0348 0.0 0
M  V30 15 C 7.8058 -2.2533 0.0 0
M  V30 16 C 13.4918 -0.0126 0.0 0
M  V30 17 C 14.2959 2.4619 0.0 0
M  V30 18 C 5.2038 -0.7511 0.0 0
M  V30 19 C 6.5048 -3.0044 0.0 0
M  V30 20 C 14.6082 0.9925 0.0 0
M  V30 21 O 3.9029 0.0 0.0 0
M  V30 22 C 5.2038 -2.2533 0.0 0
M  V30 23 C 2.6019 -0.7511 0.0 0
M  V30 24 C 1.3009 0.0 0.0 0
M  V30 25 C 0.0 -0.7511 0.0 0
M  V30 26 N -1.3723 -0.1401 0.0 0
M  V30 27 C -0.157 -2.2451 0.0 0
M  V30 28 C -2.3775 -1.2564 0.0 0
M  V30 29 O -1.6264 -2.5574 0.0 0
M  V30 30 C 0.9593 -3.2503 0.0 0
M  V30 31 C -3.8715 -1.0994 0.0 0
M  V30 32 C -4.4825 0.2729 0.0 0
M  V30 33 C -4.7545 -2.3147 0.0 0
M  V30 34 C -5.9765 0.4299 0.0 0
M  V30 35 C -6.2485 -2.1577 0.0 0
M  V30 36 C -6.8595 -0.7854 0.0 0
M  V30 END ATOM
M  V30 BEGIN BOND
M  V30 1 2 1 2
M  V30 2 1 2 3
M  V30 3 1 2 4
M  V30 4 2 4 5
M  V30 5 1 4 6
M  V30 6 1 5 7
M  V30 7 1 5 8
M  V30 8 2 6 9
M  V30 9 1 7 10
M  V30 10 1 8 11
M  V30 11 2 10 12
M  V30 12 1 10 13
M  V30 13 2 11 14
M  V30 14 1 11 15
M  V30 15 1 12 16
M  V30 16 2 13 17
M  V30 17 1 14 18
M  V30 18 2 15 19
M  V30 19 2 16 20
M  V30 20 1 18 21
M  V30 21 2 18 22
M  V30 22 1 21 23
M  V30 23 1 23 24
M  V30 24 1 24 25
M  V30 25 1 25 26
M  V30 26 2 25 27
M  V30 27 2 26 28
M  V30 28 1 27 29
M  V30 29 1 27 30
M  V30 30 1 28 31
M  V30 31 2 31 32
M  V30 32 1 31 33
M  V30 33 1 32 34
M  V30 34 2 33 35
M  V30 35 2 34 36
M  V30 36 1 7 9
M  V30 37 1 17 20
M  V30 38 1 19 22
M  V30 39 1 28 29
M  V30 40 1 35 36
M  V30 END BOND
M  V30 END CTAB
M  END
>  <Molecule ChEMBL ID>
CHEMBL474148

>  <Smiles>
Cc1oc(-c2ccccc2)nc1CCOc1cccc(Cc2c(C(=O)O)cnn2-c2ccccc2)c1

>  <IC50_nM>
4740

>  <Assay Description>
Binding affinity to PPARgamma by fluorescence polarization assay

$$$$
CHEMBL1946566
Actelion Java MolfileCreator 2.0

  0  0  0  0  0  0              0 V3000
M  V30 BEGIN CTAB
M  V30 COUNTS 36 39 0 0 0
M  V30 BEGIN ATOM
M  V30 1 Cl 4.3301 0.9999 0.0 0
M  V30 2 C 4.3301 0.0 0.0 0
M  V30 3 C 3.4641 -0.5 0.0 0
M  V30 4 C 5.1961 -0.5 0.0 0
M  V30 5 O 2.598 0.0 0.0 0
M  V30 6 C 3.4641 -1.5 0.0 0
M  V30 7 C 5.1961 -1.5 0.0 0
M  V30 8 C 1.732 -0.5 0.0 0 CFG=1
M  V30 9 C 4.3301 -2.0 0.0 0
M  V30 10 C 0.866 0.0 0.0 0
M  V30 11 C 1.732 -1.5 0.0 0
M  V30 12 C 4.3301 -3.0 0.0 0
M  V30 13 O 0.866 1.0 0.0 0
M  V30 14 O 0.0 -0.5 0.0 0
M  V30 15 N 5.1961 -3.5 0.0 0
M  V30 16 C 5.3006 -4.4945 0.0 0
M  V30 17 C 6.1096 -3.0932 0.0 0
M  V30 18 O 4.5575 -5.1636 0.0 0
M  V30 19 N 6.2788 -4.7024 0.0 0
M  V30 20 C 6.7788 -3.8364 0.0 0
M  V30 21 C 6.4187 -2.1422 0.0 0
M  V30 22 C 6.6855 -5.6159 0.0 0
M  V30 23 C 7.7569 -3.6284 0.0 0
M  V30 24 C 7.3968 -1.9342 0.0 0
M  V30 25 C 7.68 -5.7205 0.0 0
M  V30 26 C 8.0659 -2.6774 0.0 0
M  V30 27 C 7.7058 -0.9832 0.0 0
M  V30 28 C 8.0868 -6.634 0.0 0
M  V30 29 C 8.2678 -4.9114 0.0 0
M  V30 30 F 6.7548 -0.6742 0.0 0
M  V30 31 F 8.0148 -0.0321 0.0 0
M  V30 32 F 8.6569 -1.2922 0.0 0
M  V30 33 C 9.0813 -6.7385 0.0 0
M  V30 34 C 9.2623 -5.016 0.0 0
M  V30 35 C 9.6691 -5.9295 0.0 0
M  V30 36 Cl 10.6636 -6.034 0.0 0
M  V30 END ATOM
M  V30 BEGIN BOND
M  V30 1 1 1 2
M  V30 2 2 2 3
M  V30 3 1 2 4
M  V30 4 1 3 5
M  V30 5 1 3 6
M  V30 6 2 4 7
M  V30 7 1 5 8
M  V30 8 2 6 9
M  V30 9 1 8 10
M  V30 10 1 8 11 CFG=3
M  V30 11 1 9 12
M  V30 12 2 10 13
M  V30 13 1 10 14
M  V30 14 1 12 15
M  V30 15 1 15 16
M  V30 16 1 15 17
M  V30 17 2 16 18
M  V30 18 1 16 19
M  V30 19 2 17 20
M  V30 20 1 17 21
M  V30 21 1 19 22
M  V30 22 1 20 23
M  V30 23 2 21 24
M  V30 24 1 22 25
M  V30 25 2 23 26
M  V30 26 1 24 27
M  V30 27 2 25 28
M  V30 28 1 25 29
M  V30 29 1 27 30
M  V30 30 1 27 31
M  V30 31 1 27 32
M  V30 32 1 28 33
M  V30 33 2 29 34
M  V30 34 2 33 35
M  V30 35 1 35 36
M  V30 36 1 7 9
M  V30 37 1 19 20
M  V30 38 1 24 26
M  V30 39 1 34 35
M  V30 END BOND
M  V30 BEGIN COLLECTION
M  V30 MDLV30/STEABS ATOMS=(1 8)
M  V30 END COLLECTION
M  V30 END CTAB
M  END
>  <Molecule ChEMBL ID>
CHEMBL1946566

>  <Smiles>
C[C@@H](Oc1cc(Cn2c(=O)n(Cc3ccc(Cl)cc3)c3ccc(C(F)(F)F)cc32)ccc1Cl)C(=O)O

>  <IC50_nM>
4800

>  <Assay Description>
Binding affinity to human PPARgamma by scintillation proximity assay

$$$$
CHEMBL371120
Actelion Java MolfileCreator 2.0

  0  0  0  0  0  0              0 V3000
M  V30 BEGIN CTAB
M  V30 COUNTS 34 37 0 0 0
M  V30 BEGIN ATOM
M  V30 1 O 3.4641 1.5 0.0 0
M  V30 2 C 2.598 1.0 0.0 0
M  V30 3 O 1.732 1.5 0.0 0
M  V30 4 C 2.598 0.0 0.0 0
M  V30 5 N 1.732 -0.5 0.0 0
M  V30 6 C 1.732 -1.5 0.0 0
M  V30 7 C 0.866 0.0 0.0 0
M  V30 8 C 2.598 -1.9999 0.0 0
M  V30 9 C 0.0 -0.5 0.0 0
M  V30 10 C 2.598 -2.9999 0.0 0
M  V30 11 C 3.4641 -1.5 0.0 0
M  V30 12 C -0.866 0.0 0.0 0
M  V30 13 C 0.0 -1.4999 0.0 0
M  V30 14 C 3.4641 -3.4999 0.0 0
M  V30 15 C 4.3301 -1.9999 0.0 0
M  V30 16 C -1.732 -0.4999 0.0 0
M  V30 17 C -0.866 -1.9999 0.0 0
M  V30 18 C 4.3301 -2.9999 0.0 0
M  V30 19 C -1.732 -1.4999 0.0 0
M  V30 20 O 5.1961 -3.4999 0.0 0
M  V30 21 C 6.0621 -2.9999 0.0 0
M  V30 22 C 6.9282 -3.4999 0.0 0
M  V30 23 C 7.7942 -2.9999 0.0 0
M  V30 24 N 8.7077 -3.4067 0.0 0
M  V30 25 C 7.8987 -2.0054 0.0 0
M  V30 26 C 9.3769 -2.6635 0.0 0
M  V30 27 O 8.8769 -1.7975 0.0 0
M  V30 28 C 7.1556 -1.3363 0.0 0
M  V30 29 C 10.3714 -2.7681 0.0 0
M  V30 30 C 10.7781 -3.6816 0.0 0
M  V30 31 C 10.9592 -1.9591 0.0 0
M  V30 32 C 11.7726 -3.7861 0.0 0
M  V30 33 C 11.9537 -2.0636 0.0 0
M  V30 34 C 12.3604 -2.9771 0.0 0
M  V30 END ATOM
M  V30 BEGIN BOND
M  V30 1 2 1 2
M  V30 2 1 2 3
M  V30 3 1 2 4
M  V30 4 1 4 5
M  V30 5 1 5 6
M  V30 6 1 5 7
M  V30 7 1 6 8
M  V30 8 1 7 9
M  V30 9 2 8 10
M  V30 10 1 8 11
M  V30 11 2 9 12
M  V30 12 1 9 13
M  V30 13 1 10 14
M  V30 14 2 11 15
M  V30 15 1 12 16
M  V30 16 2 13 17
M  V30 17 2 14 18
M  V30 18 2 16 19
M  V30 19 1 18 20
M  V30 20 1 20 21
M  V30 21 1 21 22
M  V30 22 1 22 23
M  V30 23 1 23 24
M  V30 24 2 23 25
M  V30 25 2 24 26
M  V30 26 1 25 27
M  V30 27 1 25 28
M  V30 28 1 26 29
M  V30 29 2 29 30
M  V30 30 1 29 31
M  V30 31 1 30 32
M  V30 32 2 31 33
M  V30 33 2 32 34
M  V30 34 1 15 18
M  V30 35 1 17 19
M  V30 36 1 26 27
M  V30 37 1 33 34
M  V30 END BOND
M  V30 END CTAB
M  END
>  <Molecule ChEMBL ID>
CHEMBL371120

>  <Smiles>
Cc1oc(-c2ccccc2)nc1CCOc1ccc(CN(CC(=O)O)Cc2ccccc2)cc1

>  <IC50_nM>
4800

>  <Assay Description>
Inhibition of human Peroxisome proliferator activated receptor gamma

$$$$
CHEMBL200952
Actelion Java MolfileCreator 2.0

  0  0  0  0  0  0              0 V3000
M  V30 BEGIN CTAB
M  V30 COUNTS 30 33 0 0 0
M  V30 BEGIN ATOM
M  V30 1 O 6.8835 -5.4154 0.0 0
M  V30 2 C 6.2143 -4.6723 0.0 0
M  V30 3 O 5.2362 -4.8802 0.0 0
M  V30 4 C 6.5233 -3.7212 0.0 0
M  V30 5 N 5.8542 -2.9781 0.0 0
M  V30 6 C 6.0621 -2.0 0.0 0
M  V30 7 C 4.8597 -3.0826 0.0 0
M  V30 8 C 5.1961 -1.5 0.0 0
M  V30 9 C 6.9282 -1.5 0.0 0
M  V30 10 C 4.453 -2.1691 0.0 0
M  V30 11 C 5.1961 -0.5 0.0 0
M  V30 12 C 6.9282 -0.5 0.0 0
M  V30 13 O 4.3301 0.0 0.0 0
M  V30 14 C 6.0621 0.0 0.0 0
M  V30 15 C 3.4641 -0.5 0.0 0
M  V30 16 C 2.598 0.0 0.0 0
M  V30 17 C 1.732 -0.5 0.0 0
M  V30 18 O 0.866 0.0 0.0 0
M  V30 19 C 0.0 -0.5 0.0 0
M  V30 20 C -0.866 0.0 0.0 0
M  V30 21 C 0.0 -1.5 0.0 0
M  V30 22 C -1.732 -0.4999 0.0 0
M  V30 23 C -0.866 1.0 0.0 0
M  V30 24 C -0.866 -1.9999 0.0 0
M  V30 25 N -2.6831 -0.1909 0.0 0
M  V30 26 C -1.732 -1.4999 0.0 0
M  V30 27 C 0.0 1.5 0.0 0
M  V30 28 C -3.2708 -0.9999 0.0 0
M  V30 29 C -2.6831 -1.809 0.0 0
M  V30 30 C 0.0 2.5 0.0 0
M  V30 END ATOM
M  V30 BEGIN BOND
M  V30 1 2 1 2
M  V30 2 1 2 3
M  V30 3 1 2 4
M  V30 4 1 4 5
M  V30 5 1 5 6
M  V30 6 1 5 7
M  V30 7 2 6 8
M  V30 8 1 6 9
M  V30 9 2 7 10
M  V30 10 1 8 11
M  V30 11 2 9 12
M  V30 12 1 11 13
M  V30 13 2 11 14
M  V30 14 1 13 15
M  V30 15 1 15 16
M  V30 16 1 16 17
M  V30 17 1 17 18
M  V30 18 1 18 19
M  V30 19 2 19 20
M  V30 20 1 19 21
M  V30 21 1 20 22
M  V30 22 1 20 23
M  V30 23 2 21 24
M  V30 24 1 22 25
M  V30 25 2 22 26
M  V30 26 1 23 27
M  V30 27 1 25 28
M  V30 28 1 26 29
M  V30 29 1 27 30
M  V30 30 1 8 10
M  V30 31 1 12 14
M  V30 32 1 24 26
M  V30 33 2 28 29
M  V30 END BOND
M  V30 END CTAB
M  END
>  <Molecule ChEMBL ID>
CHEMBL200952

>  <Smiles>
CCCc1c(OCCCOc2cccc3c2ccn3CC(=O)O)ccc2cc[nH]c12

>  <IC50_nM>
4809

>  <Assay Description>
Displacement of [3H]rosiglitazone from human PPAR gamma by SPA assay

$$$$
CHEMBL4558284
Actelion Java MolfileCreator 2.0

  0  0  0  0  0  0              0 V3000
M  V30 BEGIN CTAB
M  V30 COUNTS 30 33 0 0 0
M  V30 BEGIN ATOM
M  V30 1 O 2.598 -0.75 0.0 0
M  V30 2 C 1.299 0.0 0.0 0
M  V30 3 O 1.299 1.5 0.0 0
M  V30 4 C 0.0 -0.75 0.0 0
M  V30 5 C -1.299 0.0 0.0 0
M  V30 6 C 0.0 -2.25 0.0 0
M  V30 7 C -1.299 1.5 0.0 0
M  V30 8 C -2.598 -0.7499 0.0 0
M  V30 9 C -1.299 -2.9999 0.0 0
M  V30 10 C 0.0 2.2499 0.0 0
M  V30 11 C -2.598 2.25 0.0 0
M  V30 12 C -2.598 -2.2499 0.0 0
M  V30 13 C 0.0 3.7499 0.0 0
M  V30 14 C -2.598 3.75 0.0 0
M  V30 15 C -1.299 4.5 0.0 0
M  V30 16 C -1.299 6.0 0.0 0
M  V30 17 N -2.598 6.75 0.0 0
M  V30 18 C -2.7548 8.2417 0.0 0
M  V30 19 C -3.9683 6.1398 0.0 0
M  V30 20 C -4.222 8.5536 0.0 0
M  V30 21 C -1.7511 9.3565 0.0 0
M  V30 22 C -4.972 7.2546 0.0 0
M  V30 23 C -4.2802 4.6726 0.0 0
M  V30 24 C -4.6856 9.9802 0.0 0
M  V30 25 C -2.2146 10.783 0.0 0
M  V30 26 C -6.4638 7.0978 0.0 0
M  V30 27 C -3.6819 11.0949 0.0 0
M  V30 28 C -4.1454 12.5215 0.0 0
M  V30 29 O -3.1417 13.6362 0.0 0
M  V30 30 O -5.6126 12.8334 0.0 0
M  V30 END ATOM
M  V30 BEGIN BOND
M  V30 1 2 1 2
M  V30 2 1 2 3
M  V30 3 1 2 4
M  V30 4 2 4 5
M  V30 5 1 4 6
M  V30 6 1 5 7
M  V30 7 1 5 8
M  V30 8 2 6 9
M  V30 9 2 7 10
M  V30 10 1 7 11
M  V30 11 2 8 12
M  V30 12 1 10 13
M  V30 13 2 11 14
M  V30 14 2 13 15
M  V30 15 1 15 16
M  V30 16 1 16 17
M  V30 17 1 17 18
M  V30 18 1 17 19
M  V30 19 2 18 20
M  V30 20 1 18 21
M  V30 21 2 19 22
M  V30 22 1 19 23
M  V30 23 1 20 24
M  V30 24 2 21 25
M  V30 25 1 22 26
M  V30 26 2 24 27
M  V30 27 1 27 28
M  V30 28 2 28 29
M  V30 29 1 28 30
M  V30 30 1 9 12
M  V30 31 1 14 15
M  V30 32 1 20 22
M  V30 33 1 25 27
M  V30 END BOND
M  V30 END CTAB
M  END
>  <Molecule ChEMBL ID>
CHEMBL4558284

>  <Smiles>
Cc1c(C)n(Cc2ccc(-c3ccccc3C(=O)O)cc2)c2ccc(C(=O)O)cc12

>  <IC50_nM>
4866

>  <Assay Description>
Displacement of fluormone PPAR green tracer ligand from recombinant GST-tagged PPARgamma ligand binding domain (unknown origin) incubated for 4 hrs by competitive fluorescence polarization binding assay

$$$$
CHEMBL149676
Actelion Java MolfileCreator 2.0

  0  0  0  0  0  0              0 V3000
M  V30 BEGIN CTAB
M  V30 COUNTS 33 35 0 0 0
M  V30 BEGIN ATOM
M  V30 1 O 7.4302 -3.9239 0.0 0
M  V30 2 C 6.8201 -2.5536 0.0 0
M  V30 3 N 7.5701 -1.2546 0.0 0
M  V30 4 N 5.3529 -2.2417 0.0 0
M  V30 5 N 6.5664 -0.1398 0.0 0
M  V30 6 C 9.0619 -1.0978 0.0 0
M  V30 7 C 5.1961 -0.75 0.0 0
M  V30 8 C 4.2382 -3.2454 0.0 0
M  V30 9 C 9.672 0.2724 0.0 0
M  V30 10 C 3.8971 0.0 0.0 0
M  V30 11 C 2.8116 -2.7819 0.0 0
M  V30 12 C 11.1638 0.4292 0.0 0
M  V30 13 C 8.7903 1.486 0.0 0
M  V30 14 C 2.598 -0.75 0.0 0
M  V30 15 C 1.6969 -3.7856 0.0 0
M  V30 16 C 11.7739 1.7996 0.0 0
M  V30 17 C 9.4004 2.8563 0.0 0
M  V30 18 C 1.299 0.0 0.0 0
M  V30 19 C 10.8922 3.0131 0.0 0
M  V30 20 C 0.0 -0.75 0.0 0
M  V30 21 C 11.5023 4.3834 0.0 0
M  V30 22 C -1.299 0.0 0.0 0
M  V30 23 C 0.0 -2.25 0.0 0
M  V30 24 C -2.598 -0.75 0.0 0
M  V30 25 C -1.299 -3.0 0.0 0
M  V30 26 C -2.598 -2.25 0.0 0
M  V30 27 O -3.8971 -3.0 0.0 0
M  V30 28 C -3.8971 -4.5 0.0 0
M  V30 29 C -5.1961 -5.25 0.0 0
M  V30 30 C -3.1471 -5.799 0.0 0
M  V30 31 C -2.3971 -4.4999 0.0 0
M  V30 32 O -6.4951 -4.5 0.0 0
M  V30 33 O -5.1961 -6.75 0.0 0
M  V30 END ATOM
M  V30 BEGIN BOND
M  V30 1 2 1 2
M  V30 2 1 2 3
M  V30 3 1 2 4
M  V30 4 1 3 5
M  V30 5 1 3 6
M  V30 6 1 4 7
M  V30 7 1 4 8
M  V30 8 1 6 9
M  V30 9 1 7 10
M  V30 10 1 8 11
M  V30 11 2 9 12
M  V30 12 1 9 13
M  V30 13 1 10 14
M  V30 14 1 11 15
M  V30 15 1 12 16
M  V30 16 2 13 17
M  V30 17 1 14 18
M  V30 18 2 16 19
M  V30 19 1 18 20
M  V30 20 1 19 21
M  V30 21 2 20 22
M  V30 22 1 20 23
M  V30 23 1 22 24
M  V30 24 2 23 25
M  V30 25 2 24 26
M  V30 26 1 26 27
M  V30 27 1 27 28
M  V30 28 1 28 29
M  V30 29 1 28 30
M  V30 30 1 28 31
M  V30 31 2 29 32
M  V30 32 1 29 33
M  V30 33 2 5 7
M  V30 34 1 17 19
M  V30 35 1 25 26
M  V30 END BOND
M  V30 END CTAB
M  END
>  <Molecule ChEMBL ID>
CHEMBL149676

>  <Smiles>
CCCn1c(CCCc2ccc(OC(C)(C)C(=O)O)cc2)nn(Cc2ccc(C)cc2)c1=O

>  <IC50_nM>
4897.79

>  <Assay Description>
Agonist activity at PPARgamma

$$$$
CHEMBL149676
Actelion Java MolfileCreator 2.0

  0  0  0  0  0  0              0 V3000
M  V30 BEGIN CTAB
M  V30 COUNTS 33 35 0 0 0
M  V30 BEGIN ATOM
M  V30 1 O 7.4302 -3.9239 0.0 0
M  V30 2 C 6.8201 -2.5536 0.0 0
M  V30 3 N 7.5701 -1.2546 0.0 0
M  V30 4 N 5.3529 -2.2417 0.0 0
M  V30 5 N 6.5664 -0.1398 0.0 0
M  V30 6 C 9.0619 -1.0978 0.0 0
M  V30 7 C 5.1961 -0.75 0.0 0
M  V30 8 C 4.2382 -3.2454 0.0 0
M  V30 9 C 9.672 0.2724 0.0 0
M  V30 10 C 3.8971 0.0 0.0 0
M  V30 11 C 2.8116 -2.7819 0.0 0
M  V30 12 C 11.1638 0.4292 0.0 0
M  V30 13 C 8.7903 1.486 0.0 0
M  V30 14 C 2.598 -0.75 0.0 0
M  V30 15 C 1.6969 -3.7856 0.0 0
M  V30 16 C 11.7739 1.7996 0.0 0
M  V30 17 C 9.4004 2.8563 0.0 0
M  V30 18 C 1.299 0.0 0.0 0
M  V30 19 C 10.8922 3.0131 0.0 0
M  V30 20 C 0.0 -0.75 0.0 0
M  V30 21 C 11.5023 4.3834 0.0 0
M  V30 22 C -1.299 0.0 0.0 0
M  V30 23 C 0.0 -2.25 0.0 0
M  V30 24 C -2.598 -0.75 0.0 0
M  V30 25 C -1.299 -3.0 0.0 0
M  V30 26 C -2.598 -2.25 0.0 0
M  V30 27 O -3.8971 -3.0 0.0 0
M  V30 28 C -3.8971 -4.5 0.0 0
M  V30 29 C -5.1961 -5.25 0.0 0
M  V30 30 C -3.1471 -5.799 0.0 0
M  V30 31 C -2.3971 -4.4999 0.0 0
M  V30 32 O -6.4951 -4.5 0.0 0
M  V30 33 O -5.1961 -6.75 0.0 0
M  V30 END ATOM
M  V30 BEGIN BOND
M  V30 1 2 1 2
M  V30 2 1 2 3
M  V30 3 1 2 4
M  V30 4 1 3 5
M  V30 5 1 3 6
M  V30 6 1 4 7
M  V30 7 1 4 8
M  V30 8 1 6 9
M  V30 9 1 7 10
M  V30 10 1 8 11
M  V30 11 2 9 12
M  V30 12 1 9 13
M  V30 13 1 10 14
M  V30 14 1 11 15
M  V30 15 1 12 16
M  V30 16 2 13 17
M  V30 17 1 14 18
M  V30 18 2 16 19
M  V30 19 1 18 20
M  V30 20 1 19 21
M  V30 21 2 20 22
M  V30 22 1 20 23
M  V30 23 1 22 24
M  V30 24 2 23 25
M  V30 25 2 24 26
M  V30 26 1 26 27
M  V30 27 1 27 28
M  V30 28 1 28 29
M  V30 29 1 28 30
M  V30 30 1 28 31
M  V30 31 2 29 32
M  V30 32 1 29 33
M  V30 33 2 5 7
M  V30 34 1 17 19
M  V30 35 1 25 26
M  V30 END BOND
M  V30 END CTAB
M  END
>  <Molecule ChEMBL ID>
CHEMBL149676

>  <Smiles>
CCCn1c(CCCc2ccc(OC(C)(C)C(=O)O)cc2)nn(Cc2ccc(C)cc2)c1=O

>  <IC50_nM>
4900

>  <Assay Description>
Inhibitory activity of compound against the binding of human Peroxisome proliferator activated receptor gamma was determined

$$$$
CHEMBL5272116
Actelion Java MolfileCreator 2.0

  0  0  0  0  0  0              0 V3000
M  V30 BEGIN CTAB
M  V30 COUNTS 27 29 0 0 0
M  V30 BEGIN ATOM
M  V30 1 Cl 6.0621 -1.9999 0.0 0
M  V30 2 C 5.1961 -1.4999 0.0 0
M  V30 3 C 5.1961 -0.5 0.0 0
M  V30 4 C 4.3301 -1.9999 0.0 0
M  V30 5 C 6.0621 0.0 0.0 0
M  V30 6 C 4.3301 0.0 0.0 0
M  V30 7 C 3.4641 -1.5 0.0 0
M  V30 8 C 4.3301 -2.9999 0.0 0
M  V30 9 O 6.0621 0.9999 0.0 0
M  V30 10 N 6.9282 -0.5 0.0 0
M  V30 11 C 3.4641 -0.5 0.0 0
M  V30 12 C 7.7942 0.0 0.0 0
M  V30 13 C 2.598 0.0 0.0 0
M  V30 14 C 8.6602 -0.5 0.0 0
M  V30 15 C 7.7942 0.9999 0.0 0
M  V30 16 O 2.598 1.0 0.0 0
M  V30 17 N 1.732 -0.5 0.0 0
M  V30 18 C 9.5262 0.0 0.0 0
M  V30 19 C 8.6602 1.4999 0.0 0
M  V30 20 C 0.866 0.0 0.0 0
M  V30 21 C 9.5262 0.9999 0.0 0
M  V30 22 C 0.0 -0.5 0.0 0
M  V30 23 C -0.866 0.0 0.0 0
M  V30 24 C 0.0 -1.4999 0.0 0
M  V30 25 C -1.732 -0.4999 0.0 0
M  V30 26 C -0.866 -1.9999 0.0 0
M  V30 27 C -1.732 -1.4999 0.0 0
M  V30 END ATOM
M  V30 BEGIN BOND
M  V30 1 1 1 2
M  V30 2 2 2 3
M  V30 3 1 2 4
M  V30 4 1 3 5
M  V30 5 1 3 6
M  V30 6 2 4 7
M  V30 7 1 4 8
M  V30 8 2 5 9
M  V30 9 1 5 10
M  V30 10 2 6 11
M  V30 11 1 10 12
M  V30 12 1 11 13
M  V30 13 2 12 14
M  V30 14 1 12 15
M  V30 15 2 13 16
M  V30 16 1 13 17
M  V30 17 1 14 18
M  V30 18 2 15 19
M  V30 19 1 17 20
M  V30 20 2 18 21
M  V30 21 1 20 22
M  V30 22 2 22 23
M  V30 23 1 22 24
M  V30 24 1 23 25
M  V30 25 2 24 26
M  V30 26 2 25 27
M  V30 27 1 7 11
M  V30 28 1 19 21
M  V30 29 1 26 27
M  V30 END BOND
M  V30 END CTAB
M  END
>  <Molecule ChEMBL ID>
CHEMBL5272116

>  <Smiles>
Cc1cc(C(=O)NCc2ccccc2)cc(C(=O)Nc2ccccc2)c1Cl

>  <IC50_nM>
5000

>  <Assay Description>
Inverse agonist activity at human PPARgamma in human RT112/84 transfected with NLuc-fused FABP4 assessed as reduction in PPARgamma transactivation incubated for 6 to 18 hrs by Nano-Glo luciferase assay

$$$$
CHEMBL672
Actelion Java MolfileCreator 2.0

  0  0  0  0  0  0              0 V3000
M  V30 BEGIN CTAB
M  V30 COUNTS 25 26 0 0 0
M  V30 BEGIN ATOM
M  V30 1 Cl 11.6913 -9.0 0.0 0
M  V30 2 C 11.6913 -7.5 0.0 0
M  V30 3 C 12.9904 -6.75 0.0 0
M  V30 4 C 10.3923 -6.75 0.0 0
M  V30 5 C 12.9904 -5.25 0.0 0
M  V30 6 C 10.3923 -5.25 0.0 0
M  V30 7 C 11.6913 -4.5 0.0 0
M  V30 8 C 11.6913 -3.0 0.0 0
M  V30 9 O 12.9904 -2.25 0.0 0
M  V30 10 C 10.3923 -2.25 0.0 0
M  V30 11 C 10.3923 -0.75 0.0 0
M  V30 12 C 9.0932 -3.0 0.0 0
M  V30 13 C 9.0932 0.0 0.0 0
M  V30 14 C 7.7942 -2.25 0.0 0
M  V30 15 C 7.7942 -0.75 0.0 0
M  V30 16 O 6.4952 0.0 0.0 0
M  V30 17 C 5.1961 -0.75 0.0 0
M  V30 18 C 3.8971 0.0 0.0 0
M  V30 19 C 4.4461 -2.049 0.0 0
M  V30 20 C 5.9461 -2.049 0.0 0
M  V30 21 O 3.8971 1.5 0.0 0
M  V30 22 O 2.598 -0.75 0.0 0
M  V30 23 C 1.299 0.0 0.0 0
M  V30 24 C 1.299 1.5 0.0 0
M  V30 25 C 0.0 -0.75 0.0 0
M  V30 END ATOM
M  V30 BEGIN BOND
M  V30 1 1 1 2
M  V30 2 2 2 3
M  V30 3 1 2 4
M  V30 4 1 3 5
M  V30 5 2 4 6
M  V30 6 2 5 7
M  V30 7 1 7 8
M  V30 8 2 8 9
M  V30 9 1 8 10
M  V30 10 2 10 11
M  V30 11 1 10 12
M  V30 12 1 11 13
M  V30 13 2 12 14
M  V30 14 2 13 15
M  V30 15 1 15 16
M  V30 16 1 16 17
M  V30 17 1 17 18
M  V30 18 1 17 19
M  V30 19 1 17 20
M  V30 20 2 18 21
M  V30 21 1 18 22
M  V30 22 1 22 23
M  V30 23 1 23 24
M  V30 24 1 23 25
M  V30 25 1 6 7
M  V30 26 1 14 15
M  V30 END BOND
M  V30 END CTAB
M  END
>  <Molecule ChEMBL ID>
CHEMBL672

>  <Smiles>
CC(C)OC(=O)C(C)(C)Oc1ccc(C(=O)c2ccc(Cl)cc2)cc1

>  <IC50_nM>
5000

>  <Assay Description>
Inhibition of human PPARgamma receptor by scintillation proximity assay

$$$$
CHEMBL5287514
Actelion Java MolfileCreator 2.0

  0  0  0  0  0  0              0 V3000
M  V30 BEGIN CTAB
M  V30 COUNTS 27 29 0 0 0
M  V30 BEGIN ATOM
M  V30 1 Cl 6.0621 -1.9999 0.0 0
M  V30 2 C 5.1961 -1.4999 0.0 0
M  V30 3 C 5.1961 -0.5 0.0 0
M  V30 4 C 4.3301 -1.9999 0.0 0
M  V30 5 C 6.0621 0.0 0.0 0
M  V30 6 C 4.3301 0.0 0.0 0
M  V30 7 C 3.4641 -1.5 0.0 0
M  V30 8 O 6.0621 0.9999 0.0 0
M  V30 9 N 6.9282 -0.5 0.0 0
M  V30 10 C 3.4641 -0.5 0.0 0
M  V30 11 C 7.7942 0.0 0.0 0
M  V30 12 C 2.598 0.0 0.0 0
M  V30 13 C 8.6602 -0.5 0.0 0
M  V30 14 C 7.7942 0.9999 0.0 0
M  V30 15 O 2.598 1.0 0.0 0
M  V30 16 N 1.732 -0.5 0.0 0
M  V30 17 C 9.5262 0.0 0.0 0
M  V30 18 C 8.6602 1.4999 0.0 0
M  V30 19 C 0.866 0.0 0.0 0
M  V30 20 C 9.5262 0.9999 0.0 0
M  V30 21 C 0.0 -0.5 0.0 0
M  V30 22 C -0.866 0.0 0.0 0
M  V30 23 C 0.0 -1.4999 0.0 0
M  V30 24 C -1.732 -0.4999 0.0 0
M  V30 25 C -0.866 -1.9999 0.0 0
M  V30 26 C -1.732 -1.4999 0.0 0
M  V30 27 C -2.598 0.0 0.0 0
M  V30 END ATOM
M  V30 BEGIN BOND
M  V30 1 1 1 2
M  V30 2 2 2 3
M  V30 3 1 2 4
M  V30 4 1 3 5
M  V30 5 1 3 6
M  V30 6 2 4 7
M  V30 7 2 5 8
M  V30 8 1 5 9
M  V30 9 2 6 10
M  V30 10 1 9 11
M  V30 11 1 10 12
M  V30 12 2 11 13
M  V30 13 1 11 14
M  V30 14 2 12 15
M  V30 15 1 12 16
M  V30 16 1 13 17
M  V30 17 2 14 18
M  V30 18 1 16 19
M  V30 19 2 17 20
M  V30 20 1 19 21
M  V30 21 2 21 22
M  V30 22 1 21 23
M  V30 23 1 22 24
M  V30 24 2 23 25
M  V30 25 2 24 26
M  V30 26 1 24 27
M  V30 27 1 7 10
M  V30 28 1 18 20
M  V30 29 1 25 26
M  V30 END BOND
M  V30 END CTAB
M  END
>  <Molecule ChEMBL ID>
CHEMBL5287514

>  <Smiles>
Cc1cccc(CNC(=O)c2ccc(Cl)c(C(=O)Nc3ccccc3)c2)c1

>  <IC50_nM>
5000

>  <Assay Description>
Inverse agonist activity at human PPARgamma in human RT112/84 transfected with NLuc-fused FABP4 assessed as reduction in PPARgamma transactivation incubated for 6 to 18 hrs by Nano-Glo luciferase assay

$$$$
CHEMBL5282748
Actelion Java MolfileCreator 2.0

  0  0  0  0  0  0              0 V3000
M  V30 BEGIN CTAB
M  V30 COUNTS 27 29 0 0 0
M  V30 BEGIN ATOM
M  V30 1 Cl 6.0621 -1.9999 0.0 0
M  V30 2 C 5.1961 -1.4999 0.0 0
M  V30 3 C 5.1961 -0.5 0.0 0
M  V30 4 C 4.3301 -1.9999 0.0 0
M  V30 5 C 6.0621 0.0 0.0 0
M  V30 6 C 4.3301 0.0 0.0 0
M  V30 7 C 3.4641 -1.5 0.0 0
M  V30 8 O 6.0621 0.9999 0.0 0
M  V30 9 N 6.9282 -0.5 0.0 0
M  V30 10 C 3.4641 -0.5 0.0 0
M  V30 11 C 7.7942 0.0 0.0 0
M  V30 12 C 2.598 0.0 0.0 0
M  V30 13 C 8.6602 -0.5 0.0 0
M  V30 14 C 7.7942 0.9999 0.0 0
M  V30 15 O 2.598 1.0 0.0 0
M  V30 16 N 1.732 -0.5 0.0 0
M  V30 17 C 9.5262 0.0 0.0 0
M  V30 18 C 8.6602 1.4999 0.0 0
M  V30 19 C 0.866 0.0 0.0 0
M  V30 20 C 9.5262 0.9999 0.0 0
M  V30 21 C 0.0 -0.5 0.0 0
M  V30 22 C -0.866 0.0 0.0 0
M  V30 23 C 0.0 -1.4999 0.0 0
M  V30 24 C -1.732 -0.4999 0.0 0
M  V30 25 C -0.866 -1.9999 0.0 0
M  V30 26 C -1.732 -1.4999 0.0 0
M  V30 27 Cl -2.598 -1.9999 0.0 0
M  V30 END ATOM
M  V30 BEGIN BOND
M  V30 1 1 1 2
M  V30 2 2 2 3
M  V30 3 1 2 4
M  V30 4 1 3 5
M  V30 5 1 3 6
M  V30 6 2 4 7
M  V30 7 2 5 8
M  V30 8 1 5 9
M  V30 9 2 6 10
M  V30 10 1 9 11
M  V30 11 1 10 12
M  V30 12 2 11 13
M  V30 13 1 11 14
M  V30 14 2 12 15
M  V30 15 1 12 16
M  V30 16 1 13 17
M  V30 17 2 14 18
M  V30 18 1 16 19
M  V30 19 2 17 20
M  V30 20 1 19 21
M  V30 21 2 21 22
M  V30 22 1 21 23
M  V30 23 1 22 24
M  V30 24 2 23 25
M  V30 25 2 24 26
M  V30 26 1 26 27
M  V30 27 1 7 10
M  V30 28 1 18 20
M  V30 29 1 25 26
M  V30 END BOND
M  V30 END CTAB
M  END
>  <Molecule ChEMBL ID>
CHEMBL5282748

>  <Smiles>
O=C(NCc1ccc(Cl)cc1)c1ccc(Cl)c(C(=O)Nc2ccccc2)c1

>  <IC50_nM>
5000

>  <Assay Description>
Inverse agonist activity at human PPARgamma in human RT112/84 transfected with NLuc-fused FABP4 assessed as reduction in PPARgamma transactivation incubated for 6 to 18 hrs by Nano-Glo luciferase assay

$$$$
CHEMBL178309
Actelion Java MolfileCreator 2.0

  0  0  0  0  0  0              0 V3000
M  V30 BEGIN CTAB
M  V30 COUNTS 29 31 0 0 0
M  V30 BEGIN ATOM
M  V30 1 Cl 9.0932 1.5 0.0 0
M  V30 2 C 9.0932 0.0 0.0 0
M  V30 3 C 7.7942 -0.75 0.0 0
M  V30 4 C 10.3923 -0.7499 0.0 0
M  V30 5 O 6.4951 0.0 0.0 0
M  V30 6 C 7.7942 -2.25 0.0 0
M  V30 7 C 10.3923 -2.2499 0.0 0
M  V30 8 C 5.1961 -0.75 0.0 0
M  V30 9 C 9.0932 -2.9999 0.0 0
M  V30 10 C 11.6913 -2.9999 0.0 0
M  V30 11 C 3.8971 0.0 0.0 0
M  V30 12 C 11.6913 -4.4999 0.0 0
M  V30 13 C 12.9903 -2.2499 0.0 0
M  V30 14 C 2.598 -0.75 0.0 0
M  V30 15 O 1.299 0.0 0.0 0
M  V30 16 C 0.0 -0.75 0.0 0
M  V30 17 C -1.299 0.0 0.0 0
M  V30 18 C 0.0 -2.2499 0.0 0
M  V30 19 C -2.598 -0.7499 0.0 0
M  V30 20 C -1.299 -2.9999 0.0 0
M  V30 21 O -3.8971 0.0 0.0 0
M  V30 22 C -2.598 -2.2499 0.0 0
M  V30 23 C -5.1961 -0.7499 0.0 0 CFG=1
M  V30 24 C -3.8971 -2.9999 0.0 0
M  V30 25 C -6.4951 0.0 0.0 0
M  V30 26 C -5.1961 -2.2499 0.0 0
M  V30 27 C -6.4951 -1.4999 0.0 0
M  V30 28 O -7.7942 -0.7499 0.0 0
M  V30 29 O -6.4951 1.5 0.0 0
M  V30 END ATOM
M  V30 BEGIN BOND
M  V30 1 1 1 2
M  V30 2 2 2 3
M  V30 3 1 2 4
M  V30 4 1 3 5
M  V30 5 1 3 6
M  V30 6 2 4 7
M  V30 7 1 5 8
M  V30 8 2 6 9
M  V30 9 1 7 10
M  V30 10 1 8 11
M  V30 11 1 10 12
M  V30 12 1 10 13
M  V30 13 1 11 14
M  V30 14 1 14 15
M  V30 15 1 15 16
M  V30 16 2 16 17
M  V30 17 1 16 18
M  V30 18 1 17 19
M  V30 19 2 18 20
M  V30 20 1 19 21
M  V30 21 2 19 22
M  V30 22 1 21 23
M  V30 23 1 22 24
M  V30 24 1 23 25
M  V30 25 1 23 26
M  V30 26 1 23 27 CFG=1
M  V30 27 2 25 28
M  V30 28 1 25 29
M  V30 29 1 7 9
M  V30 30 1 20 22
M  V30 31 1 24 26
M  V30 END BOND
M  V30 BEGIN COLLECTION
M  V30 MDLV30/STEABS ATOMS=(1 23)
M  V30 END COLLECTION
M  V30 END CTAB
M  END
>  <Molecule ChEMBL ID>
CHEMBL178309

>  <Smiles>
CC(C)c1ccc(OCCCOc2ccc3c(c2)O[C@@](C)(C(=O)O)CC3)c(Cl)c1

>  <IC50_nM>
5000

>  <Assay Description>
In vitro binding affinity against human PPARgamma

$$$$
CHEMBL4440578
Actelion Java MolfileCreator 2.0

  0  0  0  0  0  0              0 V3000
M  V30 BEGIN CTAB
M  V30 COUNTS 35 38 0 0 0
M  V30 BEGIN ATOM
M  V30 1 F 0.0 4.4999 0.0 0
M  V30 2 C 0.866 3.9999 0.0 0
M  V30 3 C 0.866 2.9999 0.0 0
M  V30 4 C 1.732 4.4999 0.0 0
M  V30 5 C 1.732 2.4999 0.0 0
M  V30 6 C 2.598 3.9999 0.0 0
M  V30 7 C 2.598 3.0 0.0 0
M  V30 8 C 3.4641 2.5 0.0 0
M  V30 9 O 3.4641 1.4999 0.0 0
M  V30 10 C 4.3301 1.0 0.0 0
M  V30 11 C 4.3301 0.0 0.0 0
M  V30 12 C 5.1961 1.5 0.0 0
M  V30 13 C 5.1961 -0.4999 0.0 0
M  V30 14 C 3.4641 -0.5 0.0 0
M  V30 15 C 6.0621 1.0 0.0 0
M  V30 16 C 6.0621 0.0 0.0 0
M  V30 17 C 3.4641 -1.5 0.0 0
M  V30 18 O 6.9282 -0.4999 0.0 0
M  V30 19 C 2.598 -1.9999 0.0 0
M  V30 20 C 4.3301 -2.0 0.0 0
M  V30 21 C 6.9282 -1.4999 0.0 0
M  V30 22 O 1.732 -1.4999 0.0 0
M  V30 23 O 2.598 -2.9999 0.0 0
M  V30 24 C 4.3301 -3.0 0.0 0
M  V30 25 C 7.7942 -1.9999 0.0 0
M  V30 26 C 5.1961 -3.5 0.0 0
M  V30 27 C 7.7942 -2.9999 0.0 0
M  V30 28 C 8.6602 -1.4999 0.0 0
M  V30 29 C 8.6602 -3.4999 0.0 0
M  V30 30 C 9.5262 -1.9999 0.0 0
M  V30 31 C 9.5262 -2.9999 0.0 0
M  V30 32 C 8.6602 -4.4999 0.0 0
M  V30 33 N 10.3923 -3.4999 0.0 0
M  V30 34 C 9.5262 -4.9999 0.0 0
M  V30 35 C 10.3923 -4.4999 0.0 0
M  V30 END ATOM
M  V30 BEGIN BOND
M  V30 1 1 1 2
M  V30 2 2 2 3
M  V30 3 1 2 4
M  V30 4 1 3 5
M  V30 5 2 4 6
M  V30 6 2 5 7
M  V30 7 1 7 8
M  V30 8 1 8 9
M  V30 9 1 9 10
M  V30 10 2 10 11
M  V30 11 1 10 12
M  V30 12 1 11 13
M  V30 13 1 11 14
M  V30 14 2 12 15
M  V30 15 2 13 16
M  V30 16 2 14 17
M  V30 17 1 16 18
M  V30 18 1 17 19
M  V30 19 1 17 20
M  V30 20 1 18 21
M  V30 21 2 19 22
M  V30 22 1 19 23
M  V30 23 1 20 24
M  V30 24 1 21 25
M  V30 25 1 24 26
M  V30 26 2 25 27
M  V30 27 1 25 28
M  V30 28 1 27 29
M  V30 29 2 28 30
M  V30 30 1 29 31
M  V30 31 2 29 32
M  V30 32 2 31 33
M  V30 33 1 32 34
M  V30 34 1 33 35
M  V30 35 1 6 7
M  V30 36 1 15 16
M  V30 37 1 30 31
M  V30 38 2 34 35
M  V30 END BOND
M  V30 END CTAB
M  END
>  <Molecule ChEMBL ID>
CHEMBL4440578

>  <Smiles>
CCC/C(=C\c1cc(OCc2ccc3ncccc3c2)ccc1OCc1ccc(F)cc1)C(=O)O

>  <IC50_nM>
5000

>  <Assay Description>
Antagonist actvity in pFA-GAL4-DBD fused PPARgamma LBD (unknown origin) transfected in HEK293T cells assessed as inhibition of rosiglitazone-induced PPARgamma transactivation incubated for 24 hrs by luciferase reporter gene assay

$$$$
CHEMBL3357979
Actelion Java MolfileCreator 2.0

  0  0  0  0  0  0              0 V3000
M  V30 BEGIN CTAB
M  V30 COUNTS 26 28 0 0 0
M  V30 BEGIN ATOM
M  V30 1 O 10.3923 3.7499 0.0 0
M  V30 2 C 10.3923 2.2499 0.0 0
M  V30 3 C 9.0932 1.4999 0.0 0
M  V30 4 C 11.6913 1.4999 0.0 0
M  V30 5 C 7.7942 2.25 0.0 0
M  V30 6 C 9.0932 0.0 0.0 0
M  V30 7 C 11.6913 0.0 0.0 0
M  V30 8 C 12.9903 2.2499 0.0 0
M  V30 9 C 7.7942 3.75 0.0 0
M  V30 10 C 6.4951 1.5 0.0 0
M  V30 11 O 10.3923 -0.75 0.0 0
M  V30 12 C 7.7942 -0.75 0.0 0
M  V30 13 C 12.9903 -0.75 0.0 0
M  V30 14 C 14.2894 1.4999 0.0 0
M  V30 15 C 6.4951 4.5 0.0 0
M  V30 16 C 5.1961 2.25 0.0 0
M  V30 17 C 6.4951 0.0 0.0 0
M  V30 18 C 14.2894 0.0 0.0 0
M  V30 19 C 5.1961 3.75 0.0 0
M  V30 20 C 5.1961 -0.75 0.0 0
M  V30 21 O 15.5884 -0.75 0.0 0
M  V30 22 O 3.8971 4.5 0.0 0
M  V30 23 C 3.8971 0.0 0.0 0
M  V30 24 C 2.598 -0.75 0.0 0
M  V30 25 C 1.299 0.0 0.0 0
M  V30 26 C 0.0 -0.75 0.0 0
M  V30 END ATOM
M  V30 BEGIN BOND
M  V30 1 2 1 2
M  V30 2 1 2 3
M  V30 3 1 2 4
M  V30 4 1 3 5
M  V30 5 2 3 6
M  V30 6 2 4 7
M  V30 7 1 4 8
M  V30 8 2 5 9
M  V30 9 1 5 10
M  V30 10 1 6 11
M  V30 11 1 6 12
M  V30 12 1 7 13
M  V30 13 2 8 14
M  V30 14 1 9 15
M  V30 15 2 10 16
M  V30 16 1 12 17
M  V30 17 2 13 18
M  V30 18 2 15 19
M  V30 19 1 17 20
M  V30 20 1 18 21
M  V30 21 1 19 22
M  V30 22 1 20 23
M  V30 23 1 23 24
M  V30 24 1 24 25
M  V30 25 1 25 26
M  V30 26 1 7 11
M  V30 27 1 14 18
M  V30 28 1 16 19
M  V30 END BOND
M  V30 END CTAB
M  END
>  <Molecule ChEMBL ID>
CHEMBL3357979

>  <Smiles>
CCCCCCCc1oc2cc(O)ccc2c(=O)c1-c1ccc(O)cc1

>  <IC50_nM>
5000

>  <Assay Description>
Competitive binding to human GST-tagged PPAR-gamma by TR-FRET assay

$$$$
CHEMBL5286808
Actelion Java MolfileCreator 2.0

  0  0  0  0  0  0              0 V3000
M  V30 BEGIN CTAB
M  V30 COUNTS 26 28 0 0 0
M  V30 BEGIN ATOM
M  V30 1 F 6.0621 -1.9999 0.0 0
M  V30 2 C 5.1961 -1.4999 0.0 0
M  V30 3 C 5.1961 -0.5 0.0 0
M  V30 4 C 4.3301 -1.9999 0.0 0
M  V30 5 C 6.0621 0.0 0.0 0
M  V30 6 C 4.3301 0.0 0.0 0
M  V30 7 C 3.4641 -1.5 0.0 0
M  V30 8 O 6.0621 0.9999 0.0 0
M  V30 9 N 6.9282 -0.5 0.0 0
M  V30 10 C 3.4641 -0.5 0.0 0
M  V30 11 C 7.7942 0.0 0.0 0
M  V30 12 C 2.598 0.0 0.0 0
M  V30 13 C 8.6602 -0.5 0.0 0
M  V30 14 C 7.7942 0.9999 0.0 0
M  V30 15 O 2.598 1.0 0.0 0
M  V30 16 N 1.732 -0.5 0.0 0
M  V30 17 C 9.5262 0.0 0.0 0
M  V30 18 C 8.6602 1.4999 0.0 0
M  V30 19 C 0.866 0.0 0.0 0
M  V30 20 C 9.5262 0.9999 0.0 0
M  V30 21 C 0.0 -0.5 0.0 0
M  V30 22 C -0.866 0.0 0.0 0
M  V30 23 C 0.0 -1.4999 0.0 0
M  V30 24 C -1.732 -0.4999 0.0 0
M  V30 25 C -0.866 -1.9999 0.0 0
M  V30 26 C -1.732 -1.4999 0.0 0
M  V30 END ATOM
M  V30 BEGIN BOND
M  V30 1 1 1 2
M  V30 2 2 2 3
M  V30 3 1 2 4
M  V30 4 1 3 5
M  V30 5 1 3 6
M  V30 6 2 4 7
M  V30 7 2 5 8
M  V30 8 1 5 9
M  V30 9 2 6 10
M  V30 10 1 9 11
M  V30 11 1 10 12
M  V30 12 2 11 13
M  V30 13 1 11 14
M  V30 14 2 12 15
M  V30 15 1 12 16
M  V30 16 1 13 17
M  V30 17 2 14 18
M  V30 18 1 16 19
M  V30 19 2 17 20
M  V30 20 1 19 21
M  V30 21 2 21 22
M  V30 22 1 21 23
M  V30 23 1 22 24
M  V30 24 2 23 25
M  V30 25 2 24 26
M  V30 26 1 7 10
M  V30 27 1 18 20
M  V30 28 1 25 26
M  V30 END BOND
M  V30 END CTAB
M  END
>  <Molecule ChEMBL ID>
CHEMBL5286808

>  <Smiles>
O=C(NCc1ccccc1)c1ccc(F)c(C(=O)Nc2ccccc2)c1

>  <IC50_nM>
5000

>  <Assay Description>
Inverse agonist activity at human PPARgamma in human RT112/84 transfected with NLuc-fused FABP4 assessed as reduction in PPARgamma transactivation incubated for 6 to 18 hrs by Nano-Glo luciferase assay

$$$$
CHEMBL5281604
Actelion Java MolfileCreator 2.0

  0  0  0  0  0  0              0 V3000
M  V30 BEGIN CTAB
M  V30 COUNTS 30 32 0 0 0
M  V30 BEGIN ATOM
M  V30 1 Cl 6.0621 -1.9999 0.0 0
M  V30 2 C 5.1961 -1.4999 0.0 0
M  V30 3 C 5.1961 -0.5 0.0 0
M  V30 4 C 4.3301 -1.9999 0.0 0
M  V30 5 C 6.0621 0.0 0.0 0
M  V30 6 C 4.3301 0.0 0.0 0
M  V30 7 C 3.4641 -1.5 0.0 0
M  V30 8 C 4.3301 -2.9999 0.0 0
M  V30 9 O 6.0621 0.9999 0.0 0
M  V30 10 N 6.9282 -0.5 0.0 0
M  V30 11 C 3.4641 -0.5 0.0 0
M  V30 12 F 5.3301 -2.9999 0.0 0
M  V30 13 F 4.3301 -3.9999 0.0 0
M  V30 14 F 3.3301 -2.9999 0.0 0
M  V30 15 C 7.7942 0.0 0.0 0
M  V30 16 C 2.598 0.0 0.0 0
M  V30 17 C 8.6602 -0.5 0.0 0
M  V30 18 C 7.7942 0.9999 0.0 0
M  V30 19 O 2.598 1.0 0.0 0
M  V30 20 N 1.732 -0.5 0.0 0
M  V30 21 C 9.5262 0.0 0.0 0
M  V30 22 C 8.6602 1.4999 0.0 0
M  V30 23 C 0.866 0.0 0.0 0
M  V30 24 C 9.5262 0.9999 0.0 0
M  V30 25 C 0.0 -0.5 0.0 0
M  V30 26 C -0.866 0.0 0.0 0
M  V30 27 C 0.0 -1.4999 0.0 0
M  V30 28 C -1.732 -0.4999 0.0 0
M  V30 29 C -0.866 -1.9999 0.0 0
M  V30 30 C -1.732 -1.4999 0.0 0
M  V30 END ATOM
M  V30 BEGIN BOND
M  V30 1 1 1 2
M  V30 2 2 2 3
M  V30 3 1 2 4
M  V30 4 1 3 5
M  V30 5 1 3 6
M  V30 6 2 4 7
M  V30 7 1 4 8
M  V30 8 2 5 9
M  V30 9 1 5 10
M  V30 10 2 6 11
M  V30 11 1 8 12
M  V30 12 1 8 13
M  V30 13 1 8 14
M  V30 14 1 10 15
M  V30 15 1 11 16
M  V30 16 2 15 17
M  V30 17 1 15 18
M  V30 18 2 16 19
M  V30 19 1 16 20
M  V30 20 1 17 21
M  V30 21 2 18 22
M  V30 22 1 20 23
M  V30 23 2 21 24
M  V30 24 1 23 25
M  V30 25 2 25 26
M  V30 26 1 25 27
M  V30 27 1 26 28
M  V30 28 2 27 29
M  V30 29 2 28 30
M  V30 30 1 7 11
M  V30 31 1 22 24
M  V30 32 1 29 30
M  V30 END BOND
M  V30 END CTAB
M  END
>  <Molecule ChEMBL ID>
CHEMBL5281604

>  <Smiles>
O=C(NCc1ccccc1)c1cc(C(=O)Nc2ccccc2)c(Cl)c(C(F)(F)F)c1

>  <IC50_nM>
5000

>  <Assay Description>
Inverse agonist activity at human PPARgamma in human RT112/84 transfected with NLuc-fused FABP4 assessed as reduction in PPARgamma transactivation incubated for 6 to 18 hrs by Nano-Glo luciferase assay

$$$$
CHEMBL5273188
Actelion Java MolfileCreator 2.0

  0  0  0  0  0  0              0 V3000
M  V30 BEGIN CTAB
M  V30 COUNTS 26 28 0 0 0
M  V30 BEGIN ATOM
M  V30 1 Cl 4.3301 -2.9999 0.0 0
M  V30 2 C 4.3301 -1.9999 0.0 0
M  V30 3 C 5.1961 -1.5 0.0 0
M  V30 4 C 3.4641 -1.5 0.0 0
M  V30 5 C 5.1961 -0.5 0.0 0
M  V30 6 C 3.4641 -0.5 0.0 0
M  V30 7 C 6.0621 0.0 0.0 0
M  V30 8 C 4.3301 0.0 0.0 0
M  V30 9 C 2.598 0.0 0.0 0
M  V30 10 O 6.0621 0.9999 0.0 0
M  V30 11 N 6.9282 -0.5 0.0 0
M  V30 12 O 2.598 1.0 0.0 0
M  V30 13 N 1.732 -0.5 0.0 0
M  V30 14 C 7.7942 0.0 0.0 0
M  V30 15 C 0.866 0.0 0.0 0
M  V30 16 C 8.6602 -0.5 0.0 0
M  V30 17 C 7.7942 0.9999 0.0 0
M  V30 18 C 0.0 -0.5 0.0 0
M  V30 19 C 9.5262 0.0 0.0 0
M  V30 20 C 8.6602 1.4999 0.0 0
M  V30 21 C -0.866 0.0 0.0 0
M  V30 22 C 0.0 -1.4999 0.0 0
M  V30 23 C 9.5262 0.9999 0.0 0
M  V30 24 C -1.732 -0.4999 0.0 0
M  V30 25 C -0.866 -1.9999 0.0 0
M  V30 26 C -1.732 -1.4999 0.0 0
M  V30 END ATOM
M  V30 BEGIN BOND
M  V30 1 1 1 2
M  V30 2 2 2 3
M  V30 3 1 2 4
M  V30 4 1 3 5
M  V30 5 2 4 6
M  V30 6 1 5 7
M  V30 7 2 5 8
M  V30 8 1 6 9
M  V30 9 2 7 10
M  V30 10 1 7 11
M  V30 11 2 9 12
M  V30 12 1 9 13
M  V30 13 1 11 14
M  V30 14 1 13 15
M  V30 15 2 14 16
M  V30 16 1 14 17
M  V30 17 1 15 18
M  V30 18 1 16 19
M  V30 19 2 17 20
M  V30 20 2 18 21
M  V30 21 1 18 22
M  V30 22 2 19 23
M  V30 23 1 21 24
M  V30 24 2 22 25
M  V30 25 2 24 26
M  V30 26 1 6 8
M  V30 27 1 20 23
M  V30 28 1 25 26
M  V30 END BOND
M  V30 END CTAB
M  END
>  <Molecule ChEMBL ID>
CHEMBL5273188

>  <Smiles>
O=C(NCc1ccccc1)c1cc(Cl)cc(C(=O)Nc2ccccc2)c1

>  <IC50_nM>
5000

>  <Assay Description>
Inverse agonist activity at human PPARgamma in human RT112/84 transfected with NLuc-fused FABP4 assessed as reduction in PPARgamma transactivation incubated for 6 to 18 hrs by Nano-Glo luciferase assay

$$$$
CHEMBL7002
Actelion Java MolfileCreator 2.0

  0  0  0  0  0  0              0 V3000
M  V30 BEGIN CTAB
M  V30 COUNTS 23 25 0 0 0
M  V30 BEGIN ATOM
M  V30 1 S 6.1667 0.0054 0.0 0
M  V30 2 C 7.1448 -0.2024 0.0 0
M  V30 3 C 6.0621 1.0 0.0 0 CFG=2
M  V30 4 O 7.5515 -1.1159 0.0 0
M  V30 5 N 7.6448 0.6635 0.0 0
M  V30 6 C 6.9757 1.4067 0.0 0
M  V30 7 C 5.1961 1.5 0.0 0
M  V30 8 O 7.1836 2.3848 0.0 0
M  V30 9 C 4.3301 1.0 0.0 0
M  V30 10 C 3.4641 1.5 0.0 0
M  V30 11 C 4.3301 0.0 0.0 0
M  V30 12 C 2.598 0.9999 0.0 0
M  V30 13 C 3.4641 -0.4999 0.0 0
M  V30 14 C 2.598 0.0 0.0 0
M  V30 15 O 1.732 -0.5 0.0 0
M  V30 16 C 0.866 0.0 0.0 0
M  V30 17 C 0.0 -0.5 0.0 0
M  V30 18 C -0.866 0.0 0.0 0
M  V30 19 C 0.0 -1.4999 0.0 0
M  V30 20 C 0.866 -1.0 0.0 0
M  V30 21 C -1.732 -0.4999 0.0 0
M  V30 22 C -0.866 -1.9999 0.0 0
M  V30 23 C -1.732 -1.4999 0.0 0
M  V30 END ATOM
M  V30 BEGIN BOND
M  V30 1 1 1 2
M  V30 2 1 1 3
M  V30 3 2 2 4
M  V30 4 1 2 5
M  V30 5 1 3 6
M  V30 6 1 3 7 CFG=1
M  V30 7 2 6 8
M  V30 8 1 7 9
M  V30 9 2 9 10
M  V30 10 1 9 11
M  V30 11 1 10 12
M  V30 12 2 11 13
M  V30 13 2 12 14
M  V30 14 1 14 15
M  V30 15 1 15 16
M  V30 16 1 16 17
M  V30 17 1 17 18
M  V30 18 1 17 19
M  V30 19 1 17 20
M  V30 20 1 18 21
M  V30 21 1 19 22
M  V30 22 1 21 23
M  V30 23 1 5 6
M  V30 24 1 13 14
M  V30 25 1 22 23
M  V30 END BOND
M  V30 BEGIN COLLECTION
M  V30 MDLV30/STERAC1 ATOMS=(1 3)
M  V30 END COLLECTION
M  V30 END CTAB
M  END
>  <Molecule ChEMBL ID>
CHEMBL7002

>  <Smiles>
CC1(COc2ccc(CC3SC(=O)NC3=O)cc2)CCCCC1

>  <IC50_nM>
5000

>  <Assay Description>
Competitive displacement of fluorescently labelled PPAR tracer ligand from GST-tagged human PPARgamma ligand binding domain after 1 hr in dark by TR-FRET competitive binding assay

$$$$
CHEMBL520827
Actelion Java MolfileCreator 2.0

  0  0  0  0  0  0              0 V3000
M  V30 BEGIN CTAB
M  V30 COUNTS 34 37 0 0 0
M  V30 BEGIN ATOM
M  V30 1 Cl 7.7942 2.25 0.0 0
M  V30 2 C 6.4951 1.5 0.0 0
M  V30 3 C 6.4951 0.0 0.0 0
M  V30 4 C 5.1961 2.25 0.0 0
M  V30 5 C 5.1961 -0.75 0.0 0
M  V30 6 C 3.8971 1.5 0.0 0
M  V30 7 C 3.8971 0.0 0.0 0
M  V30 8 C 5.1961 -2.25 0.0 0
M  V30 9 N 2.598 -0.75 0.0 0
M  V30 10 O 6.4951 -3.0 0.0 0
M  V30 11 O 3.8971 -3.0 0.0 0
M  V30 12 C 1.299 0.0 0.0 0
M  V30 13 O 1.299 1.5 0.0 0
M  V30 14 C 0.0 -0.75 0.0 0
M  V30 15 C -1.299 0.0 0.0 0
M  V30 16 C 0.0 -2.25 0.0 0
M  V30 17 C -2.598 -0.75 0.0 0
M  V30 18 C -1.299 -3.0 0.0 0
M  V30 19 S -3.8971 0.0 0.0 0
M  V30 20 C -2.598 -2.25 0.0 0
M  V30 21 O -3.1471 1.299 0.0 0
M  V30 22 O -4.6471 1.299 0.0 0
M  V30 23 N -5.1961 -0.75 0.0 0
M  V30 24 C -6.4951 0.0 0.0 0
M  V30 25 C -5.1961 -2.25 0.0 0
M  V30 26 C -7.7942 -0.75 0.0 0
M  V30 27 C -6.4951 -3.0 0.0 0
M  V30 28 C -7.7942 -2.25 0.0 0
M  V30 29 C -9.0932 0.0 0.0 0
M  V30 30 C -9.0932 -3.0 0.0 0
M  V30 31 C -10.3923 -0.75 0.0 0
M  V30 32 O -9.0932 -4.5 0.0 0
M  V30 33 C -10.3923 -2.25 0.0 0
M  V30 34 C -7.7942 -5.25 0.0 0
M  V30 END ATOM
M  V30 BEGIN BOND
M  V30 1 1 1 2
M  V30 2 2 2 3
M  V30 3 1 2 4
M  V30 4 1 3 5
M  V30 5 2 4 6
M  V30 6 2 5 7
M  V30 7 1 5 8
M  V30 8 1 7 9
M  V30 9 2 8 10
M  V30 10 1 8 11
M  V30 11 1 9 12
M  V30 12 2 12 13
M  V30 13 1 12 14
M  V30 14 2 14 15
M  V30 15 1 14 16
M  V30 16 1 15 17
M  V30 17 2 16 18
M  V30 18 1 17 19
M  V30 19 2 17 20
M  V30 20 2 19 21
M  V30 21 2 19 22
M  V30 22 1 19 23
M  V30 23 1 23 24
M  V30 24 1 23 25
M  V30 25 1 24 26
M  V30 26 1 25 27
M  V30 27 2 26 28
M  V30 28 1 26 29
M  V30 29 1 28 30
M  V30 30 2 29 31
M  V30 31 1 30 32
M  V30 32 2 30 33
M  V30 33 1 32 34
M  V30 34 1 6 7
M  V30 35 1 18 20
M  V30 36 1 27 28
M  V30 37 1 31 33
M  V30 END BOND
M  V30 END CTAB
M  END
>  <Molecule ChEMBL ID>
CHEMBL520827

>  <Smiles>
COc1cccc2c1CCN(S(=O)(=O)c1cccc(C(=O)Nc3ccc(Cl)cc3C(=O)O)c1)C2

>  <IC50_nM>
5011.87

>  <Assay Description>
Agonist activity at PPARgamma

$$$$
CHEMBL485087
Actelion Java MolfileCreator 2.0

  0  0  0  0  0  0              0 V3000
M  V30 BEGIN CTAB
M  V30 COUNTS 32 35 0 0 0
M  V30 BEGIN ATOM
M  V30 1 S 5.1961 3.75 0.0 0
M  V30 2 O 4.4461 5.049 0.0 0
M  V30 3 O 3.6961 3.7499 0.0 0
M  V30 4 N 6.4951 4.5 0.0 0
M  V30 5 C 5.1961 2.25 0.0 0
M  V30 6 C 7.7942 3.75 0.0 0
M  V30 7 C 6.4951 6.0 0.0 0
M  V30 8 C 3.8971 1.5 0.0 0
M  V30 9 C 6.4951 1.5 0.0 0
M  V30 10 C 9.0932 4.5 0.0 0
M  V30 11 C 7.7942 6.75 0.0 0
M  V30 12 C 3.8971 0.0 0.0 0
M  V30 13 C 6.4951 0.0 0.0 0
M  V30 14 C 9.0932 6.0 0.0 0
M  V30 15 C 10.3923 3.75 0.0 0
M  V30 16 C 2.598 -0.75 0.0 0
M  V30 17 C 5.1961 -0.75 0.0 0
M  V30 18 C 10.3923 6.75 0.0 0
M  V30 19 C 11.6913 4.5 0.0 0
M  V30 20 O 2.598 -2.25 0.0 0
M  V30 21 N 1.299 0.0 0.0 0
M  V30 22 C 11.6913 6.0 0.0 0
M  V30 23 C 0.0 -0.75 0.0 0
M  V30 24 C -1.299 0.0 0.0 0
M  V30 25 C 0.0 -2.25 0.0 0
M  V30 26 C -1.299 1.5 0.0 0
M  V30 27 C -2.598 -0.75 0.0 0
M  V30 28 C -1.299 -3.0 0.0 0
M  V30 29 O 0.0 2.25 0.0 0
M  V30 30 O -2.598 2.25 0.0 0
M  V30 31 C -2.598 -2.25 0.0 0
M  V30 32 C -3.8971 -3.0 0.0 0
M  V30 END ATOM
M  V30 BEGIN BOND
M  V30 1 2 1 2
M  V30 2 2 1 3
M  V30 3 1 1 4
M  V30 4 1 1 5
M  V30 5 1 4 6
M  V30 6 1 4 7
M  V30 7 2 5 8
M  V30 8 1 5 9
M  V30 9 1 6 10
M  V30 10 1 7 11
M  V30 11 1 8 12
M  V30 12 2 9 13
M  V30 13 2 10 14
M  V30 14 1 10 15
M  V30 15 1 12 16
M  V30 16 2 12 17
M  V30 17 1 14 18
M  V30 18 2 15 19
M  V30 19 2 16 20
M  V30 20 1 16 21
M  V30 21 2 18 22
M  V30 22 1 21 23
M  V30 23 2 23 24
M  V30 24 1 23 25
M  V30 25 1 24 26
M  V30 26 1 24 27
M  V30 27 2 25 28
M  V30 28 2 26 29
M  V30 29 1 26 30
M  V30 30 2 27 31
M  V30 31 1 31 32
M  V30 32 1 11 14
M  V30 33 1 13 17
M  V30 34 1 19 22
M  V30 35 1 28 31
M  V30 END BOND
M  V30 END CTAB
M  END
>  <Molecule ChEMBL ID>
CHEMBL485087

>  <Smiles>
Cc1ccc(NC(=O)c2cccc(S(=O)(=O)N3CCc4ccccc4C3)c2)c(C(=O)O)c1

>  <IC50_nM>
5011.87

>  <Assay Description>
Displacement of radiolabeled ligand from human PPARgamma by competition-binding assay

$$$$
CHEMBL485087
Actelion Java MolfileCreator 2.0

  0  0  0  0  0  0              0 V3000
M  V30 BEGIN CTAB
M  V30 COUNTS 32 35 0 0 0
M  V30 BEGIN ATOM
M  V30 1 S 5.1961 3.75 0.0 0
M  V30 2 O 4.4461 5.049 0.0 0
M  V30 3 O 3.6961 3.7499 0.0 0
M  V30 4 N 6.4951 4.5 0.0 0
M  V30 5 C 5.1961 2.25 0.0 0
M  V30 6 C 7.7942 3.75 0.0 0
M  V30 7 C 6.4951 6.0 0.0 0
M  V30 8 C 3.8971 1.5 0.0 0
M  V30 9 C 6.4951 1.5 0.0 0
M  V30 10 C 9.0932 4.5 0.0 0
M  V30 11 C 7.7942 6.75 0.0 0
M  V30 12 C 3.8971 0.0 0.0 0
M  V30 13 C 6.4951 0.0 0.0 0
M  V30 14 C 9.0932 6.0 0.0 0
M  V30 15 C 10.3923 3.75 0.0 0
M  V30 16 C 2.598 -0.75 0.0 0
M  V30 17 C 5.1961 -0.75 0.0 0
M  V30 18 C 10.3923 6.75 0.0 0
M  V30 19 C 11.6913 4.5 0.0 0
M  V30 20 O 2.598 -2.25 0.0 0
M  V30 21 N 1.299 0.0 0.0 0
M  V30 22 C 11.6913 6.0 0.0 0
M  V30 23 C 0.0 -0.75 0.0 0
M  V30 24 C -1.299 0.0 0.0 0
M  V30 25 C 0.0 -2.25 0.0 0
M  V30 26 C -1.299 1.5 0.0 0
M  V30 27 C -2.598 -0.75 0.0 0
M  V30 28 C -1.299 -3.0 0.0 0
M  V30 29 O 0.0 2.25 0.0 0
M  V30 30 O -2.598 2.25 0.0 0
M  V30 31 C -2.598 -2.25 0.0 0
M  V30 32 C -3.8971 -3.0 0.0 0
M  V30 END ATOM
M  V30 BEGIN BOND
M  V30 1 2 1 2
M  V30 2 2 1 3
M  V30 3 1 1 4
M  V30 4 1 1 5
M  V30 5 1 4 6
M  V30 6 1 4 7
M  V30 7 2 5 8
M  V30 8 1 5 9
M  V30 9 1 6 10
M  V30 10 1 7 11
M  V30 11 1 8 12
M  V30 12 2 9 13
M  V30 13 2 10 14
M  V30 14 1 10 15
M  V30 15 1 12 16
M  V30 16 2 12 17
M  V30 17 1 14 18
M  V30 18 2 15 19
M  V30 19 2 16 20
M  V30 20 1 16 21
M  V30 21 2 18 22
M  V30 22 1 21 23
M  V30 23 2 23 24
M  V30 24 1 23 25
M  V30 25 1 24 26
M  V30 26 1 24 27
M  V30 27 2 25 28
M  V30 28 2 26 29
M  V30 29 1 26 30
M  V30 30 2 27 31
M  V30 31 1 31 32
M  V30 32 1 11 14
M  V30 33 1 13 17
M  V30 34 1 19 22
M  V30 35 1 28 31
M  V30 END BOND
M  V30 END CTAB
M  END
>  <Molecule ChEMBL ID>
CHEMBL485087

>  <Smiles>
Cc1ccc(NC(=O)c2cccc(S(=O)(=O)N3CCc4ccccc4C3)c2)c(C(=O)O)c1

>  <IC50_nM>
5011.87

>  <Assay Description>
Agonist activity at PPARgamma

$$$$
CHEMBL1760406
Actelion Java MolfileCreator 2.0

  0  0  0  0  0  0              0 V3000
M  V30 BEGIN CTAB
M  V30 COUNTS 37 39 0 0 0
M  V30 BEGIN ATOM
M  V30 1 Cl 0.0 6.75 0.0 0
M  V30 2 C 1.299 6.0 0.0 0
M  V30 3 C 1.299 4.5 0.0 0
M  V30 4 C 2.598 6.75 0.0 0
M  V30 5 C 2.598 3.75 0.0 0
M  V30 6 C 3.8971 6.0 0.0 0
M  V30 7 C 3.8971 4.5 0.0 0
M  V30 8 C 5.1961 3.75 0.0 0
M  V30 9 C 5.1961 2.25 0.0 0
M  V30 10 C 6.4951 4.5 0.0 0
M  V30 11 C 6.4951 1.5 0.0 0
M  V30 12 C 3.8971 1.5 0.0 0
M  V30 13 C 7.7942 3.75 0.0 0
M  V30 14 N 6.4951 0.0 0.0 0
M  V30 15 C 7.7942 2.25 0.0 0
M  V30 16 S 7.7942 -0.75 0.0 0
M  V30 17 C 5.1961 -0.75 0.0 0
M  V30 18 O 7.0442 -2.049 0.0 0
M  V30 19 O 8.5442 -2.049 0.0 0
M  V30 20 C 9.0932 0.0 0.0 0
M  V30 21 C 3.8971 0.0 0.0 0
M  V30 22 C 10.3923 -0.75 0.0 0
M  V30 23 C 9.0932 1.5 0.0 0
M  V30 24 C 2.598 -0.75 0.0 0
M  V30 25 C 11.6913 0.0 0.0 0
M  V30 26 C 10.3923 -2.25 0.0 0
M  V30 27 C 10.3923 2.25 0.0 0
M  V30 28 C 1.299 0.0 0.0 0
M  V30 29 C 11.6913 1.5 0.0 0
M  V30 30 C 12.9903 -0.75 0.0 0
M  V30 31 C 0.0 -0.75 0.0 0
M  V30 32 O 12.9903 2.25 0.0 0
M  V30 33 C 12.9903 3.75 0.0 0 CFG=2
M  V30 34 C 14.2894 4.5 0.0 0
M  V30 35 C 11.6913 4.5 0.0 0
M  V30 36 O 15.5884 3.75 0.0 0
M  V30 37 O 14.2894 6.0 0.0 0
M  V30 END ATOM
M  V30 BEGIN BOND
M  V30 1 1 1 2
M  V30 2 2 2 3
M  V30 3 1 2 4
M  V30 4 1 3 5
M  V30 5 2 4 6
M  V30 6 2 5 7
M  V30 7 1 7 8
M  V30 8 2 8 9
M  V30 9 1 8 10
M  V30 10 1 9 11
M  V30 11 1 9 12
M  V30 12 2 10 13
M  V30 13 1 11 14
M  V30 14 2 11 15
M  V30 15 1 14 16
M  V30 16 1 14 17
M  V30 17 2 16 18
M  V30 18 2 16 19
M  V30 19 1 16 20
M  V30 20 1 17 21
M  V30 21 2 20 22
M  V30 22 1 20 23
M  V30 23 1 21 24
M  V30 24 1 22 25
M  V30 25 1 22 26
M  V30 26 2 23 27
M  V30 27 1 24 28
M  V30 28 2 25 29
M  V30 29 1 25 30
M  V30 30 1 28 31
M  V30 31 1 29 32
M  V30 32 1 32 33
M  V30 33 1 33 34
M  V30 34 1 33 35 CFG=1
M  V30 35 2 34 36
M  V30 36 1 34 37
M  V30 37 1 6 7
M  V30 38 1 13 15
M  V30 39 1 27 29
M  V30 END BOND
M  V30 BEGIN COLLECTION
M  V30 MDLV30/STERAC1 ATOMS=(1 33)
M  V30 END COLLECTION
M  V30 END CTAB
M  END
>  <Molecule ChEMBL ID>
CHEMBL1760406

>  <Smiles>
CCCCCN(c1cccc(-c2ccc(Cl)cc2)c1C)S(=O)(=O)c1ccc(OC(C)C(=O)O)c(C)c1C

>  <IC50_nM>
5011.87

>  <Assay Description>
Displacement of [3H]GW 2433 from human PPARgamma by scintillation proximity assay

$$$$
CHEMBL1760422
Actelion Java MolfileCreator 2.0

  0  0  0  0  0  0              0 V3000
M  V30 BEGIN CTAB
M  V30 COUNTS 37 39 0 0 0
M  V30 BEGIN ATOM
M  V30 1 Cl -1.299 -4.5 0.0 0
M  V30 2 C 0.0 -5.25 0.0 0
M  V30 3 C 0.0 -6.75 0.0 0
M  V30 4 C 1.299 -4.5 0.0 0
M  V30 5 Cl -1.299 -7.5 0.0 0
M  V30 6 C 1.299 -7.5 0.0 0
M  V30 7 C 2.598 -5.25 0.0 0
M  V30 8 C 2.598 -6.75 0.0 0
M  V30 9 C 3.8971 -4.5 0.0 0
M  V30 10 C 3.8971 -3.0 0.0 0
M  V30 11 C 5.1961 -5.25 0.0 0
M  V30 12 C 5.1961 -2.25 0.0 0
M  V30 13 C 2.598 -2.25 0.0 0
M  V30 14 C 6.4951 -4.5 0.0 0
M  V30 15 N 5.1961 -0.75 0.0 0
M  V30 16 C 6.4951 -3.0 0.0 0
M  V30 17 S 6.4951 0.0 0.0 0
M  V30 18 C 3.8971 0.0 0.0 0
M  V30 19 O 7.2451 1.299 0.0 0
M  V30 20 O 5.7451 1.299 0.0 0
M  V30 21 C 7.7942 -0.75 0.0 0
M  V30 22 C 2.598 -0.75 0.0 0
M  V30 23 C 9.0932 0.0 0.0 0
M  V30 24 C 7.7942 -2.25 0.0 0
M  V30 25 C 1.299 0.0 0.0 0
M  V30 26 C 10.3923 -0.75 0.0 0
M  V30 27 C 9.0932 1.5 0.0 0
M  V30 28 C 9.0932 -3.0 0.0 0
M  V30 29 C 0.0 -0.75 0.0 0
M  V30 30 C 10.3923 -2.25 0.0 0
M  V30 31 C 11.6913 0.0 0.0 0
M  V30 32 O 11.6913 -3.0 0.0 0
M  V30 33 C 11.6913 -4.5 0.0 0 CFG=2
M  V30 34 C 12.9903 -5.25 0.0 0
M  V30 35 C 10.3923 -5.25 0.0 0
M  V30 36 O 14.2894 -4.5 0.0 0
M  V30 37 O 12.9903 -6.75 0.0 0
M  V30 END ATOM
M  V30 BEGIN BOND
M  V30 1 1 1 2
M  V30 2 2 2 3
M  V30 3 1 2 4
M  V30 4 1 3 5
M  V30 5 1 3 6
M  V30 6 2 4 7
M  V30 7 2 6 8
M  V30 8 1 7 9
M  V30 9 2 9 10
M  V30 10 1 9 11
M  V30 11 1 10 12
M  V30 12 1 10 13
M  V30 13 2 11 14
M  V30 14 1 12 15
M  V30 15 2 12 16
M  V30 16 1 15 17
M  V30 17 1 15 18
M  V30 18 2 17 19
M  V30 19 2 17 20
M  V30 20 1 17 21
M  V30 21 1 18 22
M  V30 22 2 21 23
M  V30 23 1 21 24
M  V30 24 1 22 25
M  V30 25 1 23 26
M  V30 26 1 23 27
M  V30 27 2 24 28
M  V30 28 1 25 29
M  V30 29 2 26 30
M  V30 30 1 26 31
M  V30 31 1 30 32
M  V30 32 1 32 33
M  V30 33 1 33 34
M  V30 34 1 33 35 CFG=3
M  V30 35 2 34 36
M  V30 36 1 34 37
M  V30 37 1 7 8
M  V30 38 1 14 16
M  V30 39 1 28 30
M  V30 END BOND
M  V30 BEGIN COLLECTION
M  V30 MDLV30/STERAC1 ATOMS=(1 33)
M  V30 END COLLECTION
M  V30 END CTAB
M  END
>  <Molecule ChEMBL ID>
CHEMBL1760422

>  <Smiles>
CCCCN(c1cccc(-c2ccc(Cl)c(Cl)c2)c1C)S(=O)(=O)c1ccc(OC(C)C(=O)O)c(C)c1C

>  <IC50_nM>
5011.87

>  <Assay Description>
Displacement of [3H]GW 2433 from human PPARgamma by scintillation proximity assay

$$$$
CHEMBL1760423
Actelion Java MolfileCreator 2.0

  0  0  0  0  0  0              0 V3000
M  V30 BEGIN CTAB
M  V30 COUNTS 36 38 0 0 0
M  V30 BEGIN ATOM
M  V30 1 Cl 3.8971 -7.5 0.0 0
M  V30 2 C 2.598 -6.75 0.0 0
M  V30 3 C 2.598 -5.25 0.0 0
M  V30 4 C 1.299 -7.5 0.0 0
M  V30 5 C 3.8971 -4.5 0.0 0
M  V30 6 C 1.299 -4.5 0.0 0
M  V30 7 C 0.0 -6.75 0.0 0
M  V30 8 C 3.8971 -3.0 0.0 0
M  V30 9 C 5.1961 -5.25 0.0 0
M  V30 10 C 0.0 -5.25 0.0 0
M  V30 11 C 5.1961 -2.25 0.0 0
M  V30 12 C 2.598 -2.25 0.0 0
M  V30 13 C 6.4951 -4.5 0.0 0
M  V30 14 N 5.1961 -0.75 0.0 0
M  V30 15 C 6.4951 -3.0 0.0 0
M  V30 16 S 6.4951 0.0 0.0 0
M  V30 17 C 3.8971 0.0 0.0 0
M  V30 18 O 7.2451 1.299 0.0 0
M  V30 19 O 5.7451 1.299 0.0 0
M  V30 20 C 7.7942 -0.75 0.0 0
M  V30 21 C 2.598 -0.75 0.0 0
M  V30 22 C 9.0932 0.0 0.0 0
M  V30 23 C 7.7942 -2.25 0.0 0
M  V30 24 C 1.299 0.0 0.0 0
M  V30 25 C 10.3923 -0.75 0.0 0
M  V30 26 C 9.0932 1.5 0.0 0
M  V30 27 C 9.0932 -3.0 0.0 0
M  V30 28 C 0.0 -0.75 0.0 0
M  V30 29 C 10.3923 -2.25 0.0 0
M  V30 30 C 11.6913 0.0 0.0 0
M  V30 31 O 11.6913 -3.0 0.0 0
M  V30 32 C 11.6913 -4.5 0.0 0 CFG=2
M  V30 33 C 12.9903 -5.25 0.0 0
M  V30 34 C 10.3923 -5.25 0.0 0
M  V30 35 O 14.2894 -4.5 0.0 0
M  V30 36 O 12.9903 -6.75 0.0 0
M  V30 END ATOM
M  V30 BEGIN BOND
M  V30 1 1 1 2
M  V30 2 2 2 3
M  V30 3 1 2 4
M  V30 4 1 3 5
M  V30 5 1 3 6
M  V30 6 2 4 7
M  V30 7 2 5 8
M  V30 8 1 5 9
M  V30 9 2 6 10
M  V30 10 1 8 11
M  V30 11 1 8 12
M  V30 12 2 9 13
M  V30 13 1 11 14
M  V30 14 2 11 15
M  V30 15 1 14 16
M  V30 16 1 14 17
M  V30 17 2 16 18
M  V30 18 2 16 19
M  V30 19 1 16 20
M  V30 20 1 17 21
M  V30 21 2 20 22
M  V30 22 1 20 23
M  V30 23 1 21 24
M  V30 24 1 22 25
M  V30 25 1 22 26
M  V30 26 2 23 27
M  V30 27 1 24 28
M  V30 28 2 25 29
M  V30 29 1 25 30
M  V30 30 1 29 31
M  V30 31 1 31 32
M  V30 32 1 32 33
M  V30 33 1 32 34 CFG=3
M  V30 34 2 33 35
M  V30 35 1 33 36
M  V30 36 1 7 10
M  V30 37 1 13 15
M  V30 38 1 27 29
M  V30 END BOND
M  V30 BEGIN COLLECTION
M  V30 MDLV30/STERAC1 ATOMS=(1 32)
M  V30 END COLLECTION
M  V30 END CTAB
M  END
>  <Molecule ChEMBL ID>
CHEMBL1760423

>  <Smiles>
CCCCN(c1cccc(-c2ccccc2Cl)c1C)S(=O)(=O)c1ccc(OC(C)C(=O)O)c(C)c1C

>  <IC50_nM>
5011.87

>  <Assay Description>
Displacement of [3H]GW 2433 from human PPARgamma by scintillation proximity assay

$$$$
CHEMBL520827
Actelion Java MolfileCreator 2.0

  0  0  0  0  0  0              0 V3000
M  V30 BEGIN CTAB
M  V30 COUNTS 34 37 0 0 0
M  V30 BEGIN ATOM
M  V30 1 Cl 7.7942 2.25 0.0 0
M  V30 2 C 6.4951 1.5 0.0 0
M  V30 3 C 6.4951 0.0 0.0 0
M  V30 4 C 5.1961 2.25 0.0 0
M  V30 5 C 5.1961 -0.75 0.0 0
M  V30 6 C 3.8971 1.5 0.0 0
M  V30 7 C 3.8971 0.0 0.0 0
M  V30 8 C 5.1961 -2.25 0.0 0
M  V30 9 N 2.598 -0.75 0.0 0
M  V30 10 O 6.4951 -3.0 0.0 0
M  V30 11 O 3.8971 -3.0 0.0 0
M  V30 12 C 1.299 0.0 0.0 0
M  V30 13 O 1.299 1.5 0.0 0
M  V30 14 C 0.0 -0.75 0.0 0
M  V30 15 C -1.299 0.0 0.0 0
M  V30 16 C 0.0 -2.25 0.0 0
M  V30 17 C -2.598 -0.75 0.0 0
M  V30 18 C -1.299 -3.0 0.0 0
M  V30 19 S -3.8971 0.0 0.0 0
M  V30 20 C -2.598 -2.25 0.0 0
M  V30 21 O -3.1471 1.299 0.0 0
M  V30 22 O -4.6471 1.299 0.0 0
M  V30 23 N -5.1961 -0.75 0.0 0
M  V30 24 C -6.4951 0.0 0.0 0
M  V30 25 C -5.1961 -2.25 0.0 0
M  V30 26 C -7.7942 -0.75 0.0 0
M  V30 27 C -6.4951 -3.0 0.0 0
M  V30 28 C -7.7942 -2.25 0.0 0
M  V30 29 C -9.0932 0.0 0.0 0
M  V30 30 C -9.0932 -3.0 0.0 0
M  V30 31 C -10.3923 -0.75 0.0 0
M  V30 32 O -9.0932 -4.5 0.0 0
M  V30 33 C -10.3923 -2.25 0.0 0
M  V30 34 C -7.7942 -5.25 0.0 0
M  V30 END ATOM
M  V30 BEGIN BOND
M  V30 1 1 1 2
M  V30 2 2 2 3
M  V30 3 1 2 4
M  V30 4 1 3 5
M  V30 5 2 4 6
M  V30 6 2 5 7
M  V30 7 1 5 8
M  V30 8 1 7 9
M  V30 9 2 8 10
M  V30 10 1 8 11
M  V30 11 1 9 12
M  V30 12 2 12 13
M  V30 13 1 12 14
M  V30 14 2 14 15
M  V30 15 1 14 16
M  V30 16 1 15 17
M  V30 17 2 16 18
M  V30 18 1 17 19
M  V30 19 2 17 20
M  V30 20 2 19 21
M  V30 21 2 19 22
M  V30 22 1 19 23
M  V30 23 1 23 24
M  V30 24 1 23 25
M  V30 25 1 24 26
M  V30 26 1 25 27
M  V30 27 2 26 28
M  V30 28 1 26 29
M  V30 29 1 28 30
M  V30 30 2 29 31
M  V30 31 1 30 32
M  V30 32 2 30 33
M  V30 33 1 32 34
M  V30 34 1 6 7
M  V30 35 1 18 20
M  V30 36 1 27 28
M  V30 37 1 31 33
M  V30 END BOND
M  V30 END CTAB
M  END
>  <Molecule ChEMBL ID>
CHEMBL520827

>  <Smiles>
COc1cccc2c1CCN(S(=O)(=O)c1cccc(C(=O)Nc3ccc(Cl)cc3C(=O)O)c1)C2

>  <IC50_nM>
5011.87

>  <Assay Description>
Displacement of radiolabeled ligand from human PPARgamma by competition-binding assay

$$$$
CHEMBL1760402
Actelion Java MolfileCreator 2.0

  0  0  0  0  0  0              0 V3000
M  V30 BEGIN CTAB
M  V30 COUNTS 37 39 0 0 0
M  V30 BEGIN ATOM
M  V30 1 Cl -1.299 -7.5 0.0 0
M  V30 2 C 0.0 -6.75 0.0 0
M  V30 3 C 0.0 -5.25 0.0 0
M  V30 4 C 1.299 -7.5 0.0 0
M  V30 5 C 1.299 -4.5 0.0 0
M  V30 6 C 2.598 -6.75 0.0 0
M  V30 7 C 2.598 -5.25 0.0 0
M  V30 8 C 3.8971 -4.5 0.0 0
M  V30 9 C 3.8971 -3.0 0.0 0
M  V30 10 C 5.1961 -5.25 0.0 0
M  V30 11 C 5.1961 -2.25 0.0 0
M  V30 12 C 2.598 -2.25 0.0 0
M  V30 13 C 6.4951 -4.5 0.0 0
M  V30 14 N 5.1961 -0.75 0.0 0
M  V30 15 C 6.4951 -3.0 0.0 0
M  V30 16 S 6.4951 0.0 0.0 0
M  V30 17 C 3.8971 0.0 0.0 0
M  V30 18 O 7.2451 1.299 0.0 0
M  V30 19 O 5.7451 1.299 0.0 0
M  V30 20 C 7.7942 -0.75 0.0 0
M  V30 21 C 2.598 -0.75 0.0 0
M  V30 22 C 9.0932 0.0 0.0 0
M  V30 23 C 7.7942 -2.25 0.0 0
M  V30 24 C 1.299 0.0 0.0 0
M  V30 25 O 9.0932 1.5 0.0 0
M  V30 26 C 10.3923 -0.75 0.0 0
M  V30 27 C 9.0932 -3.0 0.0 0
M  V30 28 C 0.0 -0.75 0.0 0
M  V30 29 C 10.3923 2.25 0.0 0
M  V30 30 F 11.6913 0.0 0.0 0
M  V30 31 C 10.3923 -2.25 0.0 0
M  V30 32 O 11.6913 -3.0 0.0 0
M  V30 33 C 11.6913 -4.5 0.0 0 CFG=2
M  V30 34 C 12.9903 -5.25 0.0 0
M  V30 35 C 10.3923 -5.25 0.0 0
M  V30 36 O 14.2894 -4.5 0.0 0
M  V30 37 O 12.9903 -6.75 0.0 0
M  V30 END ATOM
M  V30 BEGIN BOND
M  V30 1 1 1 2
M  V30 2 2 2 3
M  V30 3 1 2 4
M  V30 4 1 3 5
M  V30 5 2 4 6
M  V30 6 2 5 7
M  V30 7 1 7 8
M  V30 8 2 8 9
M  V30 9 1 8 10
M  V30 10 1 9 11
M  V30 11 1 9 12
M  V30 12 2 10 13
M  V30 13 1 11 14
M  V30 14 2 11 15
M  V30 15 1 14 16
M  V30 16 1 14 17
M  V30 17 2 16 18
M  V30 18 2 16 19
M  V30 19 1 16 20
M  V30 20 1 17 21
M  V30 21 2 20 22
M  V30 22 1 20 23
M  V30 23 1 21 24
M  V30 24 1 22 25
M  V30 25 1 22 26
M  V30 26 2 23 27
M  V30 27 1 24 28
M  V30 28 1 25 29
M  V30 29 1 26 30
M  V30 30 2 26 31
M  V30 31 1 31 32
M  V30 32 1 32 33
M  V30 33 1 33 34
M  V30 34 1 33 35 CFG=3
M  V30 35 2 34 36
M  V30 36 1 34 37
M  V30 37 1 6 7
M  V30 38 1 13 15
M  V30 39 1 27 31
M  V30 END BOND
M  V30 BEGIN COLLECTION
M  V30 MDLV30/STERAC1 ATOMS=(1 33)
M  V30 END COLLECTION
M  V30 END CTAB
M  END
>  <Molecule ChEMBL ID>
CHEMBL1760402

>  <Smiles>
CCCCN(c1cccc(-c2ccc(Cl)cc2)c1C)S(=O)(=O)c1ccc(OC(C)C(=O)O)c(F)c1OC

>  <IC50_nM>
5011.87

>  <Assay Description>
Displacement of [3H]GW 2433 from human PPARgamma by scintillation proximity assay

$$$$
CHEMBL1760410
Actelion Java MolfileCreator 2.0

  0  0  0  0  0  0              0 V3000
M  V30 BEGIN CTAB
M  V30 COUNTS 39 41 0 0 0
M  V30 BEGIN ATOM
M  V30 1 Cl -1.299 -7.5 0.0 0
M  V30 2 C 0.0 -6.75 0.0 0
M  V30 3 C 0.0 -5.25 0.0 0
M  V30 4 C 1.299 -7.5 0.0 0
M  V30 5 C 1.299 -4.5 0.0 0
M  V30 6 C 2.598 -6.75 0.0 0
M  V30 7 C 2.598 -5.25 0.0 0
M  V30 8 C 3.8971 -4.5 0.0 0
M  V30 9 C 3.8971 -3.0 0.0 0
M  V30 10 C 5.1961 -5.25 0.0 0
M  V30 11 C 5.1961 -2.25 0.0 0
M  V30 12 C 2.598 -2.25 0.0 0
M  V30 13 C 6.4951 -4.5 0.0 0
M  V30 14 N 5.1961 -0.75 0.0 0
M  V30 15 C 6.4951 -3.0 0.0 0
M  V30 16 S 6.4951 0.0 0.0 0
M  V30 17 C 3.8971 0.0 0.0 0
M  V30 18 O 7.2451 1.299 0.0 0
M  V30 19 O 5.7451 1.299 0.0 0
M  V30 20 C 7.7942 -0.75 0.0 0
M  V30 21 C 2.598 -0.75 0.0 0
M  V30 22 C 9.0932 0.0 0.0 0
M  V30 23 C 7.7942 -2.25 0.0 0
M  V30 24 C 1.299 0.0 0.0 0
M  V30 25 C 10.3923 -0.75 0.0 0
M  V30 26 C 9.0932 1.5 0.0 0
M  V30 27 C 9.0932 -3.0 0.0 0
M  V30 28 C 0.0 -0.75 0.0 0
M  V30 29 C 10.3923 -2.25 0.0 0
M  V30 30 C 11.6913 0.0 0.0 0
M  V30 31 F 0.75 -2.049 0.0 0
M  V30 32 F -1.299 -1.5 0.0 0
M  V30 33 F -0.75 0.549 0.0 0
M  V30 34 O 11.6913 -3.0 0.0 0
M  V30 35 C 11.6913 -4.5 0.0 0 CFG=2
M  V30 36 C 12.9903 -5.25 0.0 0
M  V30 37 C 10.3923 -5.25 0.0 0
M  V30 38 O 14.2894 -4.5 0.0 0
M  V30 39 O 12.9903 -6.75 0.0 0
M  V30 END ATOM
M  V30 BEGIN BOND
M  V30 1 1 1 2
M  V30 2 2 2 3
M  V30 3 1 2 4
M  V30 4 1 3 5
M  V30 5 2 4 6
M  V30 6 2 5 7
M  V30 7 1 7 8
M  V30 8 2 8 9
M  V30 9 1 8 10
M  V30 10 1 9 11
M  V30 11 1 9 12
M  V30 12 2 10 13
M  V30 13 1 11 14
M  V30 14 2 11 15
M  V30 15 1 14 16
M  V30 16 1 14 17
M  V30 17 2 16 18
M  V30 18 2 16 19
M  V30 19 1 16 20
M  V30 20 1 17 21
M  V30 21 2 20 22
M  V30 22 1 20 23
M  V30 23 1 21 24
M  V30 24 1 22 25
M  V30 25 1 22 26
M  V30 26 2 23 27
M  V30 27 1 24 28
M  V30 28 2 25 29
M  V30 29 1 25 30
M  V30 30 1 28 31
M  V30 31 1 28 32
M  V30 32 1 28 33
M  V30 33 1 29 34
M  V30 34 1 34 35
M  V30 35 1 35 36
M  V30 36 1 35 37 CFG=3
M  V30 37 2 36 38
M  V30 38 1 36 39
M  V30 39 1 6 7
M  V30 40 1 13 15
M  V30 41 1 27 29
M  V30 END BOND
M  V30 BEGIN COLLECTION
M  V30 MDLV30/STERAC1 ATOMS=(1 35)
M  V30 END COLLECTION
M  V30 END CTAB
M  END
>  <Molecule ChEMBL ID>
CHEMBL1760410

>  <Smiles>
Cc1c(-c2ccc(Cl)cc2)cccc1N(CCCC(F)(F)F)S(=O)(=O)c1ccc(OC(C)C(=O)O)c(C)c1C

>  <IC50_nM>
5011.87

>  <Assay Description>
Displacement of [3H]GW 2433 from human PPARgamma by scintillation proximity assay

$$$$
CHEMBL1760426
Actelion Java MolfileCreator 2.0

  0  0  0  0  0  0              0 V3000
M  V30 BEGIN CTAB
M  V30 COUNTS 36 38 0 0 0
M  V30 BEGIN ATOM
M  V30 1 S 6.4951 0.0 0.0 0
M  V30 2 O 7.2451 1.299 0.0 0
M  V30 3 O 5.7451 1.299 0.0 0
M  V30 4 N 5.1961 -0.75 0.0 0
M  V30 5 C 7.7942 -0.75 0.0 0
M  V30 6 C 5.1961 -2.25 0.0 0
M  V30 7 C 3.8971 0.0 0.0 0
M  V30 8 C 9.0932 0.0 0.0 0
M  V30 9 C 7.7942 -2.25 0.0 0
M  V30 10 C 3.8971 -3.0 0.0 0
M  V30 11 C 6.4951 -3.0 0.0 0
M  V30 12 C 2.598 -0.75 0.0 0
M  V30 13 C 10.3923 -0.75 0.0 0
M  V30 14 C 9.0932 1.5 0.0 0
M  V30 15 C 9.0932 -3.0 0.0 0
M  V30 16 C 3.8971 -4.5 0.0 0
M  V30 17 C 2.598 -2.25 0.0 0
M  V30 18 C 6.4951 -4.5 0.0 0
M  V30 19 C 1.299 0.0 0.0 0
M  V30 20 C 10.3923 -2.25 0.0 0
M  V30 21 C 11.6913 0.0 0.0 0
M  V30 22 C 2.598 -5.25 0.0 0
M  V30 23 C 5.1961 -5.25 0.0 0
M  V30 24 C 0.0 -0.75 0.0 0
M  V30 25 O 11.6913 -3.0 0.0 0
M  V30 26 C 1.299 -4.5 0.0 0
M  V30 27 C 2.598 -6.75 0.0 0
M  V30 28 C 11.6913 -4.5 0.0 0 CFG=2
M  V30 29 C 0.0 -5.25 0.0 0
M  V30 30 C 1.299 -7.5 0.0 0
M  V30 31 C 12.9903 -5.25 0.0 0
M  V30 32 C 10.3923 -5.25 0.0 0
M  V30 33 C 0.0 -6.75 0.0 0
M  V30 34 O 14.2894 -4.5 0.0 0
M  V30 35 O 12.9903 -6.75 0.0 0
M  V30 36 C -1.299 -7.5 0.0 0
M  V30 END ATOM
M  V30 BEGIN BOND
M  V30 1 2 1 2
M  V30 2 2 1 3
M  V30 3 1 1 4
M  V30 4 1 1 5
M  V30 5 1 4 6
M  V30 6 1 4 7
M  V30 7 2 5 8
M  V30 8 1 5 9
M  V30 9 2 6 10
M  V30 10 1 6 11
M  V30 11 1 7 12
M  V30 12 1 8 13
M  V30 13 1 8 14
M  V30 14 2 9 15
M  V30 15 1 10 16
M  V30 16 1 10 17
M  V30 17 2 11 18
M  V30 18 1 12 19
M  V30 19 2 13 20
M  V30 20 1 13 21
M  V30 21 1 16 22
M  V30 22 2 16 23
M  V30 23 1 19 24
M  V30 24 1 20 25
M  V30 25 2 22 26
M  V30 26 1 22 27
M  V30 27 1 25 28
M  V30 28 1 26 29
M  V30 29 2 27 30
M  V30 30 1 28 31
M  V30 31 1 28 32 CFG=3
M  V30 32 2 29 33
M  V30 33 2 31 34
M  V30 34 1 31 35
M  V30 35 1 33 36
M  V30 36 1 15 20
M  V30 37 1 18 23
M  V30 38 1 30 33
M  V30 END BOND
M  V30 BEGIN COLLECTION
M  V30 MDLV30/STERAC1 ATOMS=(1 28)
M  V30 END COLLECTION
M  V30 END CTAB
M  END
>  <Molecule ChEMBL ID>
CHEMBL1760426

>  <Smiles>
CCCCN(c1cccc(-c2ccc(C)cc2)c1C)S(=O)(=O)c1ccc(OC(C)C(=O)O)c(C)c1C

>  <IC50_nM>
5011.87

>  <Assay Description>
Displacement of [3H]GW 2433 from human PPARgamma by scintillation proximity assay

$$$$
CHEMBL1760266
Actelion Java MolfileCreator 2.0

  0  0  0  0  0  0              0 V3000
M  V30 BEGIN CTAB
M  V30 COUNTS 37 39 0 0 0
M  V30 BEGIN ATOM
M  V30 1 S 6.4951 0.0 0.0 0
M  V30 2 O 7.2451 1.299 0.0 0
M  V30 3 O 5.7451 1.299 0.0 0
M  V30 4 N 5.1961 -0.75 0.0 0
M  V30 5 C 7.7942 -0.75 0.0 0
M  V30 6 C 5.1961 -2.25 0.0 0
M  V30 7 C 3.8971 0.0 0.0 0
M  V30 8 C 7.7942 -2.25 0.0 0
M  V30 9 C 9.0932 0.0 0.0 0
M  V30 10 C 3.8971 -3.0 0.0 0
M  V30 11 C 6.4951 -3.0 0.0 0
M  V30 12 C 2.598 -0.75 0.0 0
M  V30 13 C 9.0932 -3.0 0.0 0
M  V30 14 C 10.3923 -0.75 0.0 0
M  V30 15 C 3.8971 -4.5 0.0 0
M  V30 16 C 6.4951 -4.5 0.0 0
M  V30 17 C 1.299 0.0 0.0 0
M  V30 18 C 10.3923 -2.25 0.0 0
M  V30 19 C 9.0932 -4.5 0.0 0
M  V30 20 C 2.598 -5.25 0.0 0
M  V30 21 C 5.1961 -5.25 0.0 0
M  V30 22 C 1.299 1.5 0.0 0
M  V30 23 C 0.0 -0.75 0.0 0
M  V30 24 O 11.6913 -3.0 0.0 0
M  V30 25 C 1.299 -4.5 0.0 0
M  V30 26 C 2.598 -6.75 0.0 0
M  V30 27 C 12.9903 -2.25 0.0 0
M  V30 28 C 0.0 -5.25 0.0 0
M  V30 29 C 1.299 -7.5 0.0 0
M  V30 30 C 14.2894 -3.0 0.0 0
M  V30 31 C 0.0 -6.75 0.0 0
M  V30 32 O 14.2894 -4.5 0.0 0
M  V30 33 O 15.5884 -2.25 0.0 0
M  V30 34 C -1.299 -7.5 0.0 0
M  V30 35 F -0.549 -8.799 0.0 0
M  V30 36 F -2.598 -8.25 0.0 0
M  V30 37 F -2.049 -6.2009 0.0 0
M  V30 END ATOM
M  V30 BEGIN BOND
M  V30 1 2 1 2
M  V30 2 2 1 3
M  V30 3 1 1 4
M  V30 4 1 1 5
M  V30 5 1 4 6
M  V30 6 1 4 7
M  V30 7 2 5 8
M  V30 8 1 5 9
M  V30 9 2 6 10
M  V30 10 1 6 11
M  V30 11 1 7 12
M  V30 12 1 8 13
M  V30 13 2 9 14
M  V30 14 1 10 15
M  V30 15 2 11 16
M  V30 16 1 12 17
M  V30 17 2 13 18
M  V30 18 1 13 19
M  V30 19 1 15 20
M  V30 20 2 15 21
M  V30 21 1 17 22
M  V30 22 1 17 23
M  V30 23 1 18 24
M  V30 24 2 20 25
M  V30 25 1 20 26
M  V30 26 1 24 27
M  V30 27 1 25 28
M  V30 28 2 26 29
M  V30 29 1 27 30
M  V30 30 2 28 31
M  V30 31 2 30 32
M  V30 32 1 30 33
M  V30 33 1 31 34
M  V30 34 1 34 35
M  V30 35 1 34 36
M  V30 36 1 34 37
M  V30 37 1 14 18
M  V30 38 1 16 21
M  V30 39 1 29 31
M  V30 END BOND
M  V30 END CTAB
M  END
>  <Molecule ChEMBL ID>
CHEMBL1760266

>  <Smiles>
Cc1cc(S(=O)(=O)N(CCC(C)C)c2cccc(-c3ccc(C(F)(F)F)cc3)c2)ccc1OCC(=O)O

>  <IC50_nM>
5011.87

>  <Assay Description>
Displacement of [3H]GW 2433 from human PPARgamma by scintillation proximity assay

$$$$
CHEMBL523594
Actelion Java MolfileCreator 2.0

  0  0  0  0  0  0              0 V3000
M  V30 BEGIN CTAB
M  V30 COUNTS 33 36 0 0 0
M  V30 BEGIN ATOM
M  V30 1 S 5.1961 3.75 0.0 0
M  V30 2 O 5.9461 5.049 0.0 0
M  V30 3 O 6.6961 3.7499 0.0 0
M  V30 4 N 3.8971 4.5 0.0 0
M  V30 5 C 5.1961 2.25 0.0 0
M  V30 6 C 3.7403 5.9917 0.0 0
M  V30 7 C 2.5267 3.8898 0.0 0
M  V30 8 C 3.8971 1.5 0.0 0
M  V30 9 C 6.4951 1.5 0.0 0
M  V30 10 C 4.744 7.1065 0.0 0
M  V30 11 C 2.2731 6.3036 0.0 0
M  V30 12 C 1.5231 5.0046 0.0 0
M  V30 13 C 3.8971 0.0 0.0 0
M  V30 14 C 6.4951 0.0 0.0 0
M  V30 15 O 6.2112 6.7946 0.0 0
M  V30 16 C 4.2804 8.533 0.0 0
M  V30 17 C 1.8095 7.7302 0.0 0
M  V30 18 C 2.598 -0.75 0.0 0
M  V30 19 C 5.1961 -0.75 0.0 0
M  V30 20 C 7.2149 7.9093 0.0 0
M  V30 21 C 2.8132 8.8449 0.0 0
M  V30 22 O 2.598 -2.25 0.0 0
M  V30 23 N 1.299 0.0 0.0 0
M  V30 24 C 0.0 -0.75 0.0 0
M  V30 25 C -1.299 0.0 0.0 0
M  V30 26 C 0.0 -2.25 0.0 0
M  V30 27 C -1.299 1.5 0.0 0
M  V30 28 C -2.598 -0.75 0.0 0
M  V30 29 C -1.299 -3.0 0.0 0
M  V30 30 O 0.0 2.25 0.0 0
M  V30 31 O -2.598 2.25 0.0 0
M  V30 32 C -2.598 -2.25 0.0 0
M  V30 33 C -3.8971 -3.0 0.0 0
M  V30 END ATOM
M  V30 BEGIN BOND
M  V30 1 2 1 2
M  V30 2 2 1 3
M  V30 3 1 1 4
M  V30 4 1 1 5
M  V30 5 1 4 6
M  V30 6 1 4 7
M  V30 7 2 5 8
M  V30 8 1 5 9
M  V30 9 2 6 10
M  V30 10 1 6 11
M  V30 11 2 7 12
M  V30 12 1 8 13
M  V30 13 2 9 14
M  V30 14 1 10 15
M  V30 15 1 10 16
M  V30 16 2 11 17
M  V30 17 1 13 18
M  V30 18 2 13 19
M  V30 19 1 15 20
M  V30 20 2 16 21
M  V30 21 2 18 22
M  V30 22 1 18 23
M  V30 23 1 23 24
M  V30 24 2 24 25
M  V30 25 1 24 26
M  V30 26 1 25 27
M  V30 27 1 25 28
M  V30 28 2 26 29
M  V30 29 2 27 30
M  V30 30 1 27 31
M  V30 31 2 28 32
M  V30 32 1 32 33
M  V30 33 1 11 12
M  V30 34 1 14 19
M  V30 35 1 17 21
M  V30 36 1 29 32
M  V30 END BOND
M  V30 END CTAB
M  END
>  <Molecule ChEMBL ID>
CHEMBL523594

>  <Smiles>
COc1cccc2ccn(S(=O)(=O)c3cccc(C(=O)Nc4ccc(C)cc4C(=O)O)c3)c12

>  <IC50_nM>
5011.87

>  <Assay Description>
Displacement of radiolabeled ligand from human PPARgamma by competition-binding assay

$$$$
CHEMBL496933
Actelion Java MolfileCreator 2.0

  0  0  0  0  0  0              0 V3000
M  V30 BEGIN CTAB
M  V30 COUNTS 34 37 0 0 0
M  V30 BEGIN ATOM
M  V30 1 Cl 9.0932 10.5 0.0 0
M  V30 2 C 9.0932 9.0 0.0 0
M  V30 3 C 7.7942 8.25 0.0 0
M  V30 4 C 10.3923 8.25 0.0 0
M  V30 5 C 7.7942 6.75 0.0 0
M  V30 6 C 6.4951 9.0 0.0 0
M  V30 7 C 10.3923 6.75 0.0 0
M  V30 8 C 9.0932 6.0 0.0 0
M  V30 9 C 6.4951 6.0 0.0 0
M  V30 10 C 9.0932 4.5 0.0 0
M  V30 11 N 6.4951 4.5 0.0 0
M  V30 12 C 7.7942 3.75 0.0 0
M  V30 13 S 5.1961 3.75 0.0 0
M  V30 14 O 4.4461 5.049 0.0 0
M  V30 15 O 3.6961 3.7499 0.0 0
M  V30 16 C 5.1961 2.25 0.0 0
M  V30 17 C 3.8971 1.5 0.0 0
M  V30 18 C 6.4951 1.5 0.0 0
M  V30 19 C 3.8971 0.0 0.0 0
M  V30 20 C 6.4951 0.0 0.0 0
M  V30 21 C 2.598 -0.75 0.0 0
M  V30 22 C 5.1961 -0.75 0.0 0
M  V30 23 O 2.598 -2.25 0.0 0
M  V30 24 N 1.299 0.0 0.0 0
M  V30 25 C 0.0 -0.75 0.0 0
M  V30 26 C -1.299 0.0 0.0 0
M  V30 27 C 0.0 -2.25 0.0 0
M  V30 28 C -1.299 1.5 0.0 0
M  V30 29 C -2.598 -0.75 0.0 0
M  V30 30 C -1.299 -3.0 0.0 0
M  V30 31 O 0.0 2.25 0.0 0
M  V30 32 O -2.598 2.25 0.0 0
M  V30 33 C -2.598 -2.25 0.0 0
M  V30 34 Cl -3.8971 -3.0 0.0 0
M  V30 END ATOM
M  V30 BEGIN BOND
M  V30 1 1 1 2
M  V30 2 2 2 3
M  V30 3 1 2 4
M  V30 4 1 3 5
M  V30 5 1 3 6
M  V30 6 2 4 7
M  V30 7 2 5 8
M  V30 8 1 5 9
M  V30 9 1 8 10
M  V30 10 1 9 11
M  V30 11 1 10 12
M  V30 12 1 11 13
M  V30 13 2 13 14
M  V30 14 2 13 15
M  V30 15 1 13 16
M  V30 16 2 16 17
M  V30 17 1 16 18
M  V30 18 1 17 19
M  V30 19 2 18 20
M  V30 20 1 19 21
M  V30 21 2 19 22
M  V30 22 2 21 23
M  V30 23 1 21 24
M  V30 24 1 24 25
M  V30 25 2 25 26
M  V30 26 1 25 27
M  V30 27 1 26 28
M  V30 28 1 26 29
M  V30 29 2 27 30
M  V30 30 2 28 31
M  V30 31 1 28 32
M  V30 32 2 29 33
M  V30 33 1 33 34
M  V30 34 1 7 8
M  V30 35 1 11 12
M  V30 36 1 20 22
M  V30 37 1 30 33
M  V30 END BOND
M  V30 END CTAB
M  END
>  <Molecule ChEMBL ID>
CHEMBL496933

>  <Smiles>
Cc1c(Cl)ccc2c1CN(S(=O)(=O)c1cccc(C(=O)Nc3ccc(Cl)cc3C(=O)O)c1)CC2

>  <IC50_nM>
5011.87

>  <Assay Description>
Displacement of radiolabeled ligand from human PPARgamma by competition-binding assay

$$$$
CHEMBL1760269
Actelion Java MolfileCreator 2.0

  0  0  0  0  0  0              0 V3000
M  V30 BEGIN CTAB
M  V30 COUNTS 37 39 0 0 0
M  V30 BEGIN ATOM
M  V30 1 Cl -1.299 -7.5 0.0 0
M  V30 2 C 0.0 -6.75 0.0 0
M  V30 3 C 0.0 -5.25 0.0 0
M  V30 4 C 1.299 -7.5 0.0 0
M  V30 5 C 1.299 -4.5 0.0 0
M  V30 6 C 2.598 -6.75 0.0 0
M  V30 7 C 2.598 -5.25 0.0 0
M  V30 8 C 3.8971 -4.5 0.0 0
M  V30 9 C 3.8971 -3.0 0.0 0
M  V30 10 C 5.1961 -5.25 0.0 0
M  V30 11 C 5.1961 -2.25 0.0 0
M  V30 12 C 2.598 -2.25 0.0 0
M  V30 13 C 6.4951 -4.5 0.0 0
M  V30 14 N 5.1961 -0.75 0.0 0
M  V30 15 C 6.4951 -3.0 0.0 0
M  V30 16 S 6.4951 0.0 0.0 0
M  V30 17 C 3.8971 0.0 0.0 0
M  V30 18 O 7.2451 1.299 0.0 0
M  V30 19 O 5.7451 1.299 0.0 0
M  V30 20 C 7.7942 -0.75 0.0 0
M  V30 21 C 2.598 -0.75 0.0 0
M  V30 22 C 9.0932 0.0 0.0 0
M  V30 23 C 7.7942 -2.25 0.0 0
M  V30 24 C 1.299 0.0 0.0 0
M  V30 25 C 10.3923 -0.75 0.0 0
M  V30 26 C 9.0932 1.5 0.0 0
M  V30 27 C 9.0932 -3.0 0.0 0
M  V30 28 C 0.0 -0.75 0.0 0
M  V30 29 C 10.3923 -2.25 0.0 0
M  V30 30 C 11.6913 0.0 0.0 0
M  V30 31 O 11.6913 -3.0 0.0 0
M  V30 32 C 11.6913 -4.5 0.0 0 CFG=2
M  V30 33 C 10.3923 -5.25 0.0 0
M  V30 34 C 12.9903 -5.25 0.0 0
M  V30 35 O 10.3923 -6.75 0.0 0
M  V30 36 O 9.0932 -4.5 0.0 0
M  V30 37 C 12.9903 -6.75 0.0 0
M  V30 END ATOM
M  V30 BEGIN BOND
M  V30 1 1 1 2
M  V30 2 2 2 3
M  V30 3 1 2 4
M  V30 4 1 3 5
M  V30 5 2 4 6
M  V30 6 2 5 7
M  V30 7 1 7 8
M  V30 8 2 8 9
M  V30 9 1 8 10
M  V30 10 1 9 11
M  V30 11 1 9 12
M  V30 12 2 10 13
M  V30 13 1 11 14
M  V30 14 2 11 15
M  V30 15 1 14 16
M  V30 16 1 14 17
M  V30 17 2 16 18
M  V30 18 2 16 19
M  V30 19 1 16 20
M  V30 20 1 17 21
M  V30 21 2 20 22
M  V30 22 1 20 23
M  V30 23 1 21 24
M  V30 24 1 22 25
M  V30 25 1 22 26
M  V30 26 2 23 27
M  V30 27 1 24 28
M  V30 28 2 25 29
M  V30 29 1 25 30
M  V30 30 1 29 31
M  V30 31 1 32 31 CFG=1
M  V30 32 1 32 33
M  V30 33 1 32 34
M  V30 34 2 33 35
M  V30 35 1 33 36
M  V30 36 1 34 37
M  V30 37 1 6 7
M  V30 38 1 13 15
M  V30 39 1 27 29
M  V30 END BOND
M  V30 BEGIN COLLECTION
M  V30 MDLV30/STERAC1 ATOMS=(1 32)
M  V30 END COLLECTION
M  V30 END CTAB
M  END
>  <Molecule ChEMBL ID>
CHEMBL1760269

>  <Smiles>
CCCCN(c1cccc(-c2ccc(Cl)cc2)c1C)S(=O)(=O)c1ccc(OC(CC)C(=O)O)c(C)c1C

>  <IC50_nM>
5011.87

>  <Assay Description>
Displacement of [3H]GW 2433 from human PPARgamma by scintillation proximity assay

$$$$
CHEMBL1760425
Actelion Java MolfileCreator 2.0

  0  0  0  0  0  0              0 V3000
M  V30 BEGIN CTAB
M  V30 COUNTS 40 42 0 0 0
M  V30 BEGIN ATOM
M  V30 1 S 6.4951 0.0 0.0 0
M  V30 2 O 7.2451 1.299 0.0 0
M  V30 3 O 5.7451 1.299 0.0 0
M  V30 4 N 5.1961 -0.75 0.0 0
M  V30 5 C 7.7942 -0.75 0.0 0
M  V30 6 C 5.1961 -2.25 0.0 0
M  V30 7 C 3.8971 0.0 0.0 0
M  V30 8 C 9.0932 0.0 0.0 0
M  V30 9 C 7.7942 -2.25 0.0 0
M  V30 10 C 3.8971 -3.0 0.0 0
M  V30 11 C 6.4951 -3.0 0.0 0
M  V30 12 C 2.598 -0.75 0.0 0
M  V30 13 C 10.3923 -0.75 0.0 0
M  V30 14 C 9.0932 1.5 0.0 0
M  V30 15 C 9.0932 -3.0 0.0 0
M  V30 16 C 3.8971 -4.5 0.0 0
M  V30 17 C 2.598 -2.25 0.0 0
M  V30 18 C 6.4951 -4.5 0.0 0
M  V30 19 C 1.299 0.0 0.0 0
M  V30 20 C 10.3923 -2.25 0.0 0
M  V30 21 C 11.6913 0.0 0.0 0
M  V30 22 C 2.598 -5.25 0.0 0
M  V30 23 C 5.1961 -5.25 0.0 0
M  V30 24 C 0.0 -0.75 0.0 0
M  V30 25 O 11.6913 -3.0 0.0 0
M  V30 26 C 1.299 -4.5 0.0 0
M  V30 27 C 2.598 -6.75 0.0 0
M  V30 28 C 11.6913 -4.5 0.0 0 CFG=2
M  V30 29 C 0.0 -5.25 0.0 0
M  V30 30 C 1.299 -7.5 0.0 0
M  V30 31 C 12.9903 -5.25 0.0 0
M  V30 32 C 10.3923 -5.25 0.0 0
M  V30 33 C 0.0 -6.75 0.0 0
M  V30 34 O 14.2894 -4.5 0.0 0
M  V30 35 O 12.9903 -6.75 0.0 0
M  V30 36 O -1.299 -7.5 0.0 0
M  V30 37 C -1.299 -9.0 0.0 0
M  V30 38 F 0.2009 -9.0 0.0 0
M  V30 39 F -1.299 -10.5 0.0 0
M  V30 40 F -2.799 -9.0 0.0 0
M  V30 END ATOM
M  V30 BEGIN BOND
M  V30 1 2 1 2
M  V30 2 2 1 3
M  V30 3 1 1 4
M  V30 4 1 1 5
M  V30 5 1 4 6
M  V30 6 1 4 7
M  V30 7 2 5 8
M  V30 8 1 5 9
M  V30 9 2 6 10
M  V30 10 1 6 11
M  V30 11 1 7 12
M  V30 12 1 8 13
M  V30 13 1 8 14
M  V30 14 2 9 15
M  V30 15 1 10 16
M  V30 16 1 10 17
M  V30 17 2 11 18
M  V30 18 1 12 19
M  V30 19 2 13 20
M  V30 20 1 13 21
M  V30 21 1 16 22
M  V30 22 2 16 23
M  V30 23 1 19 24
M  V30 24 1 20 25
M  V30 25 2 22 26
M  V30 26 1 22 27
M  V30 27 1 25 28
M  V30 28 1 26 29
M  V30 29 2 27 30
M  V30 30 1 28 31
M  V30 31 1 28 32 CFG=3
M  V30 32 2 29 33
M  V30 33 2 31 34
M  V30 34 1 31 35
M  V30 35 1 33 36
M  V30 36 1 36 37
M  V30 37 1 37 38
M  V30 38 1 37 39
M  V30 39 1 37 40
M  V30 40 1 15 20
M  V30 41 1 18 23
M  V30 42 1 30 33
M  V30 END BOND
M  V30 BEGIN COLLECTION
M  V30 MDLV30/STERAC1 ATOMS=(1 28)
M  V30 END COLLECTION
M  V30 END CTAB
M  END
>  <Molecule ChEMBL ID>
CHEMBL1760425

>  <Smiles>
CCCCN(c1cccc(-c2ccc(OC(F)(F)F)cc2)c1C)S(=O)(=O)c1ccc(OC(C)C(=O)O)c(C)c1C

>  <IC50_nM>
5011.87

>  <Assay Description>
Displacement of [3H]GW 2433 from human PPARgamma by scintillation proximity assay

$$$$
CHEMBL1760411
Actelion Java MolfileCreator 2.0

  0  0  0  0  0  0              0 V3000
M  V30 BEGIN CTAB
M  V30 COUNTS 36 38 0 0 0
M  V30 BEGIN ATOM
M  V30 1 Cl 2.598 -2.25 0.0 0
M  V30 2 C 3.8971 -3.0 0.0 0
M  V30 3 C 5.1961 -2.25 0.0 0
M  V30 4 C 3.8971 -4.5 0.0 0
M  V30 5 N 5.1961 -0.75 0.0 0
M  V30 6 C 6.4951 -3.0 0.0 0
M  V30 7 C 2.598 -5.25 0.0 0
M  V30 8 C 5.1961 -5.25 0.0 0
M  V30 9 S 6.4951 0.0 0.0 0
M  V30 10 C 3.8971 0.0 0.0 0
M  V30 11 C 6.4951 -4.5 0.0 0
M  V30 12 C 2.598 -6.75 0.0 0
M  V30 13 C 1.299 -4.5 0.0 0
M  V30 14 O 7.2451 1.299 0.0 0
M  V30 15 O 5.7451 1.299 0.0 0
M  V30 16 C 7.7942 -0.75 0.0 0
M  V30 17 C 2.598 -0.75 0.0 0
M  V30 18 C 1.299 -7.5 0.0 0
M  V30 19 C 0.0 -5.25 0.0 0
M  V30 20 C 9.0932 0.0 0.0 0
M  V30 21 C 7.7942 -2.25 0.0 0
M  V30 22 C 1.299 0.0 0.0 0
M  V30 23 C 0.0 -6.75 0.0 0
M  V30 24 C 10.3923 -0.75 0.0 0
M  V30 25 C 9.0932 1.5 0.0 0
M  V30 26 C 9.0932 -3.0 0.0 0
M  V30 27 C 0.0 -0.75 0.0 0
M  V30 28 Cl -1.299 -7.5 0.0 0
M  V30 29 C 10.3923 -2.25 0.0 0
M  V30 30 C 11.6913 0.0 0.0 0
M  V30 31 O 11.6913 -3.0 0.0 0
M  V30 32 C 11.6913 -4.5 0.0 0 CFG=2
M  V30 33 C 12.9903 -5.25 0.0 0
M  V30 34 C 10.3923 -5.25 0.0 0
M  V30 35 O 14.2894 -4.5 0.0 0
M  V30 36 O 12.9903 -6.75 0.0 0
M  V30 END ATOM
M  V30 BEGIN BOND
M  V30 1 1 1 2
M  V30 2 2 2 3
M  V30 3 1 2 4
M  V30 4 1 3 5
M  V30 5 1 3 6
M  V30 6 1 4 7
M  V30 7 2 4 8
M  V30 8 1 5 9
M  V30 9 1 5 10
M  V30 10 2 6 11
M  V30 11 2 7 12
M  V30 12 1 7 13
M  V30 13 2 9 14
M  V30 14 2 9 15
M  V30 15 1 9 16
M  V30 16 1 10 17
M  V30 17 1 12 18
M  V30 18 2 13 19
M  V30 19 2 16 20
M  V30 20 1 16 21
M  V30 21 1 17 22
M  V30 22 2 18 23
M  V30 23 1 20 24
M  V30 24 1 20 25
M  V30 25 2 21 26
M  V30 26 1 22 27
M  V30 27 1 23 28
M  V30 28 2 24 29
M  V30 29 1 24 30
M  V30 30 1 29 31
M  V30 31 1 31 32
M  V30 32 1 32 33
M  V30 33 1 32 34 CFG=3
M  V30 34 2 33 35
M  V30 35 1 33 36
M  V30 36 1 8 11
M  V30 37 1 19 23
M  V30 38 1 26 29
M  V30 END BOND
M  V30 BEGIN COLLECTION
M  V30 MDLV30/STERAC1 ATOMS=(1 32)
M  V30 END COLLECTION
M  V30 END CTAB
M  END
>  <Molecule ChEMBL ID>
CHEMBL1760411

>  <Smiles>
CCCCN(c1cccc(-c2ccc(Cl)cc2)c1Cl)S(=O)(=O)c1ccc(OC(C)C(=O)O)c(C)c1C

>  <IC50_nM>
5011.87

>  <Assay Description>
Displacement of [3H]GW 2433 from human PPARgamma by scintillation proximity assay

$$$$
CHEMBL1760413
Actelion Java MolfileCreator 2.0

  0  0  0  0  0  0              0 V3000
M  V30 BEGIN CTAB
M  V30 COUNTS 39 41 0 0 0
M  V30 BEGIN ATOM
M  V30 1 Cl 11.6913 -7.5 0.0 0
M  V30 2 C 10.3923 -6.75 0.0 0
M  V30 3 C 10.3923 -5.25 0.0 0
M  V30 4 C 9.0932 -7.5 0.0 0
M  V30 5 C 9.0932 -4.5 0.0 0
M  V30 6 C 7.7942 -6.75 0.0 0
M  V30 7 C 7.7942 -5.25 0.0 0
M  V30 8 C 6.4951 -4.5 0.0 0
M  V30 9 C 6.4951 -3.0 0.0 0
M  V30 10 C 5.1961 -5.25 0.0 0
M  V30 11 C 5.1961 -2.25 0.0 0
M  V30 12 C 3.8971 -4.5 0.0 0
M  V30 13 N 5.1961 -0.75 0.0 0
M  V30 14 C 3.8971 -3.0 0.0 0
M  V30 15 C 2.598 -5.25 0.0 0
M  V30 16 S 6.4951 0.0 0.0 0
M  V30 17 C 3.8971 0.0 0.0 0
M  V30 18 F 3.348 -6.549 0.0 0
M  V30 19 F 1.299 -6.0 0.0 0
M  V30 20 F 1.848 -3.9509 0.0 0
M  V30 21 O 7.2451 1.299 0.0 0
M  V30 22 O 5.7451 1.299 0.0 0
M  V30 23 C 7.7942 -0.75 0.0 0
M  V30 24 C 2.598 -0.75 0.0 0
M  V30 25 C 9.0932 0.0 0.0 0
M  V30 26 C 7.7942 -2.25 0.0 0
M  V30 27 C 1.299 0.0 0.0 0
M  V30 28 C 10.3923 -0.75 0.0 0
M  V30 29 C 9.0932 1.5 0.0 0
M  V30 30 C 9.0932 -3.0 0.0 0
M  V30 31 C 0.0 -0.75 0.0 0
M  V30 32 C 10.3923 -2.25 0.0 0
M  V30 33 C 11.6913 0.0 0.0 0
M  V30 34 O 11.6913 -3.0 0.0 0
M  V30 35 C 12.9903 -2.25 0.0 0 CFG=2
M  V30 36 C 14.2894 -3.0 0.0 0
M  V30 37 C 12.9903 -0.75 0.0 0
M  V30 38 O 14.2894 -4.5 0.0 0
M  V30 39 O 15.5884 -2.25 0.0 0
M  V30 END ATOM
M  V30 BEGIN BOND
M  V30 1 1 1 2
M  V30 2 2 2 3
M  V30 3 1 2 4
M  V30 4 1 3 5
M  V30 5 2 4 6
M  V30 6 2 5 7
M  V30 7 1 7 8
M  V30 8 2 8 9
M  V30 9 1 8 10
M  V30 10 1 9 11
M  V30 11 2 10 12
M  V30 12 1 11 13
M  V30 13 2 11 14
M  V30 14 1 12 15
M  V30 15 1 13 16
M  V30 16 1 13 17
M  V30 17 1 15 18
M  V30 18 1 15 19
M  V30 19 1 15 20
M  V30 20 2 16 21
M  V30 21 2 16 22
M  V30 22 1 16 23
M  V30 23 1 17 24
M  V30 24 2 23 25
M  V30 25 1 23 26
M  V30 26 1 24 27
M  V30 27 1 25 28
M  V30 28 1 25 29
M  V30 29 2 26 30
M  V30 30 1 27 31
M  V30 31 2 28 32
M  V30 32 1 28 33
M  V30 33 1 32 34
M  V30 34 1 34 35
M  V30 35 1 35 36
M  V30 36 1 35 37 CFG=1
M  V30 37 2 36 38
M  V30 38 1 36 39
M  V30 39 1 6 7
M  V30 40 1 12 14
M  V30 41 1 30 32
M  V30 END BOND
M  V30 BEGIN COLLECTION
M  V30 MDLV30/STERAC1 ATOMS=(1 35)
M  V30 END COLLECTION
M  V30 END CTAB
M  END
>  <Molecule ChEMBL ID>
CHEMBL1760413

>  <Smiles>
CCCCN(c1cc(-c2ccc(Cl)cc2)cc(C(F)(F)F)c1)S(=O)(=O)c1ccc(OC(C)C(=O)O)c(C)c1C

>  <IC50_nM>
5011.87

>  <Assay Description>
Displacement of [3H]GW 2433 from human PPARgamma by scintillation proximity assay

$$$$
CHEMBL484466
Actelion Java MolfileCreator 2.0

  0  0  0  0  0  0              0 V3000
M  V30 BEGIN CTAB
M  V30 COUNTS 33 36 0 0 0
M  V30 BEGIN ATOM
M  V30 1 Cl 7.7942 2.25 0.0 0
M  V30 2 C 6.4951 1.5 0.0 0
M  V30 3 C 6.4951 0.0 0.0 0
M  V30 4 C 5.1961 2.25 0.0 0
M  V30 5 C 5.1961 -0.75 0.0 0
M  V30 6 C 3.8971 1.5 0.0 0
M  V30 7 C 3.8971 0.0 0.0 0
M  V30 8 C 5.1961 -2.25 0.0 0
M  V30 9 N 2.598 -0.75 0.0 0
M  V30 10 O 6.4951 -3.0 0.0 0
M  V30 11 O 3.8971 -3.0 0.0 0
M  V30 12 C 1.299 0.0 0.0 0
M  V30 13 O 1.299 1.5 0.0 0
M  V30 14 C 0.0 -0.75 0.0 0
M  V30 15 C -1.299 0.0 0.0 0
M  V30 16 C 0.0 -2.25 0.0 0
M  V30 17 C -2.598 -0.75 0.0 0
M  V30 18 C -1.299 -3.0 0.0 0
M  V30 19 S -3.8971 0.0 0.0 0
M  V30 20 C -2.598 -2.25 0.0 0
M  V30 21 O -3.1471 1.299 0.0 0
M  V30 22 O -4.6471 1.299 0.0 0
M  V30 23 N -5.1961 -0.75 0.0 0
M  V30 24 C -6.4951 0.0 0.0 0
M  V30 25 C -5.1961 -2.25 0.0 0
M  V30 26 C -7.7942 -0.75 0.0 0
M  V30 27 C -6.4951 -3.0 0.0 0
M  V30 28 C -7.7942 -2.25 0.0 0
M  V30 29 C -9.0932 0.0 0.0 0
M  V30 30 C -9.0932 -3.0 0.0 0
M  V30 31 C -10.3923 -0.75 0.0 0
M  V30 32 O -9.0932 -4.5 0.0 0
M  V30 33 C -10.3923 -2.25 0.0 0
M  V30 END ATOM
M  V30 BEGIN BOND
M  V30 1 1 1 2
M  V30 2 2 2 3
M  V30 3 1 2 4
M  V30 4 1 3 5
M  V30 5 2 4 6
M  V30 6 2 5 7
M  V30 7 1 5 8
M  V30 8 1 7 9
M  V30 9 2 8 10
M  V30 10 1 8 11
M  V30 11 1 9 12
M  V30 12 2 12 13
M  V30 13 1 12 14
M  V30 14 2 14 15
M  V30 15 1 14 16
M  V30 16 1 15 17
M  V30 17 2 16 18
M  V30 18 1 17 19
M  V30 19 2 17 20
M  V30 20 2 19 21
M  V30 21 2 19 22
M  V30 22 1 19 23
M  V30 23 1 23 24
M  V30 24 1 23 25
M  V30 25 1 24 26
M  V30 26 1 25 27
M  V30 27 2 26 28
M  V30 28 1 26 29
M  V30 29 1 28 30
M  V30 30 2 29 31
M  V30 31 1 30 32
M  V30 32 2 30 33
M  V30 33 1 6 7
M  V30 34 1 18 20
M  V30 35 1 27 28
M  V30 36 1 31 33
M  V30 END BOND
M  V30 END CTAB
M  END
>  <Molecule ChEMBL ID>
CHEMBL484466

>  <Smiles>
O=C(Nc1ccc(Cl)cc1C(=O)O)c1cccc(S(=O)(=O)N2CCc3c(O)cccc3C2)c1

>  <IC50_nM>
5011.87

>  <Assay Description>
Displacement of radiolabeled ligand from human PPARgamma by competition-binding assay

$$$$
CHEMBL496933
Actelion Java MolfileCreator 2.0

  0  0  0  0  0  0              0 V3000
M  V30 BEGIN CTAB
M  V30 COUNTS 34 37 0 0 0
M  V30 BEGIN ATOM
M  V30 1 Cl 9.0932 10.5 0.0 0
M  V30 2 C 9.0932 9.0 0.0 0
M  V30 3 C 7.7942 8.25 0.0 0
M  V30 4 C 10.3923 8.25 0.0 0
M  V30 5 C 7.7942 6.75 0.0 0
M  V30 6 C 6.4951 9.0 0.0 0
M  V30 7 C 10.3923 6.75 0.0 0
M  V30 8 C 9.0932 6.0 0.0 0
M  V30 9 C 6.4951 6.0 0.0 0
M  V30 10 C 9.0932 4.5 0.0 0
M  V30 11 N 6.4951 4.5 0.0 0
M  V30 12 C 7.7942 3.75 0.0 0
M  V30 13 S 5.1961 3.75 0.0 0
M  V30 14 O 4.4461 5.049 0.0 0
M  V30 15 O 3.6961 3.7499 0.0 0
M  V30 16 C 5.1961 2.25 0.0 0
M  V30 17 C 3.8971 1.5 0.0 0
M  V30 18 C 6.4951 1.5 0.0 0
M  V30 19 C 3.8971 0.0 0.0 0
M  V30 20 C 6.4951 0.0 0.0 0
M  V30 21 C 2.598 -0.75 0.0 0
M  V30 22 C 5.1961 -0.75 0.0 0
M  V30 23 O 2.598 -2.25 0.0 0
M  V30 24 N 1.299 0.0 0.0 0
M  V30 25 C 0.0 -0.75 0.0 0
M  V30 26 C -1.299 0.0 0.0 0
M  V30 27 C 0.0 -2.25 0.0 0
M  V30 28 C -1.299 1.5 0.0 0
M  V30 29 C -2.598 -0.75 0.0 0
M  V30 30 C -1.299 -3.0 0.0 0
M  V30 31 O 0.0 2.25 0.0 0
M  V30 32 O -2.598 2.25 0.0 0
M  V30 33 C -2.598 -2.25 0.0 0
M  V30 34 Cl -3.8971 -3.0 0.0 0
M  V30 END ATOM
M  V30 BEGIN BOND
M  V30 1 1 1 2
M  V30 2 2 2 3
M  V30 3 1 2 4
M  V30 4 1 3 5
M  V30 5 1 3 6
M  V30 6 2 4 7
M  V30 7 2 5 8
M  V30 8 1 5 9
M  V30 9 1 8 10
M  V30 10 1 9 11
M  V30 11 1 10 12
M  V30 12 1 11 13
M  V30 13 2 13 14
M  V30 14 2 13 15
M  V30 15 1 13 16
M  V30 16 2 16 17
M  V30 17 1 16 18
M  V30 18 1 17 19
M  V30 19 2 18 20
M  V30 20 1 19 21
M  V30 21 2 19 22
M  V30 22 2 21 23
M  V30 23 1 21 24
M  V30 24 1 24 25
M  V30 25 2 25 26
M  V30 26 1 25 27
M  V30 27 1 26 28
M  V30 28 1 26 29
M  V30 29 2 27 30
M  V30 30 2 28 31
M  V30 31 1 28 32
M  V30 32 2 29 33
M  V30 33 1 33 34
M  V30 34 1 7 8
M  V30 35 1 11 12
M  V30 36 1 20 22
M  V30 37 1 30 33
M  V30 END BOND
M  V30 END CTAB
M  END
>  <Molecule ChEMBL ID>
CHEMBL496933

>  <Smiles>
Cc1c(Cl)ccc2c1CN(S(=O)(=O)c1cccc(C(=O)Nc3ccc(Cl)cc3C(=O)O)c1)CC2

>  <IC50_nM>
5011.87

>  <Assay Description>
Agonist activity at PPARgamma

$$$$
CHEMBL496933
Actelion Java MolfileCreator 2.0

  0  0  0  0  0  0              0 V3000
M  V30 BEGIN CTAB
M  V30 COUNTS 34 37 0 0 0
M  V30 BEGIN ATOM
M  V30 1 Cl 9.0932 10.5 0.0 0
M  V30 2 C 9.0932 9.0 0.0 0
M  V30 3 C 7.7942 8.25 0.0 0
M  V30 4 C 10.3923 8.25 0.0 0
M  V30 5 C 7.7942 6.75 0.0 0
M  V30 6 C 6.4951 9.0 0.0 0
M  V30 7 C 10.3923 6.75 0.0 0
M  V30 8 C 9.0932 6.0 0.0 0
M  V30 9 C 6.4951 6.0 0.0 0
M  V30 10 C 9.0932 4.5 0.0 0
M  V30 11 N 6.4951 4.5 0.0 0
M  V30 12 C 7.7942 3.75 0.0 0
M  V30 13 S 5.1961 3.75 0.0 0
M  V30 14 O 4.4461 5.049 0.0 0
M  V30 15 O 3.6961 3.7499 0.0 0
M  V30 16 C 5.1961 2.25 0.0 0
M  V30 17 C 3.8971 1.5 0.0 0
M  V30 18 C 6.4951 1.5 0.0 0
M  V30 19 C 3.8971 0.0 0.0 0
M  V30 20 C 6.4951 0.0 0.0 0
M  V30 21 C 2.598 -0.75 0.0 0
M  V30 22 C 5.1961 -0.75 0.0 0
M  V30 23 O 2.598 -2.25 0.0 0
M  V30 24 N 1.299 0.0 0.0 0
M  V30 25 C 0.0 -0.75 0.0 0
M  V30 26 C -1.299 0.0 0.0 0
M  V30 27 C 0.0 -2.25 0.0 0
M  V30 28 C -1.299 1.5 0.0 0
M  V30 29 C -2.598 -0.75 0.0 0
M  V30 30 C -1.299 -3.0 0.0 0
M  V30 31 O 0.0 2.25 0.0 0
M  V30 32 O -2.598 2.25 0.0 0
M  V30 33 C -2.598 -2.25 0.0 0
M  V30 34 Cl -3.8971 -3.0 0.0 0
M  V30 END ATOM
M  V30 BEGIN BOND
M  V30 1 1 1 2
M  V30 2 2 2 3
M  V30 3 1 2 4
M  V30 4 1 3 5
M  V30 5 1 3 6
M  V30 6 2 4 7
M  V30 7 2 5 8
M  V30 8 1 5 9
M  V30 9 1 8 10
M  V30 10 1 9 11
M  V30 11 1 10 12
M  V30 12 1 11 13
M  V30 13 2 13 14
M  V30 14 2 13 15
M  V30 15 1 13 16
M  V30 16 2 16 17
M  V30 17 1 16 18
M  V30 18 1 17 19
M  V30 19 2 18 20
M  V30 20 1 19 21
M  V30 21 2 19 22
M  V30 22 2 21 23
M  V30 23 1 21 24
M  V30 24 1 24 25
M  V30 25 2 25 26
M  V30 26 1 25 27
M  V30 27 1 26 28
M  V30 28 1 26 29
M  V30 29 2 27 30
M  V30 30 2 28 31
M  V30 31 1 28 32
M  V30 32 2 29 33
M  V30 33 1 33 34
M  V30 34 1 7 8
M  V30 35 1 11 12
M  V30 36 1 20 22
M  V30 37 1 30 33
M  V30 END BOND
M  V30 END CTAB
M  END
>  <Molecule ChEMBL ID>
CHEMBL496933

>  <Smiles>
Cc1c(Cl)ccc2c1CN(S(=O)(=O)c1cccc(C(=O)Nc3ccc(Cl)cc3C(=O)O)c1)CC2

>  <IC50_nM>
5012

>  <Assay Description>
Agonist activity at PPARgamma

$$$$
CHEMBL110071
Actelion Java MolfileCreator 2.0

  0  0  0  0  0  0              0 V3000
M  V30 BEGIN CTAB
M  V30 COUNTS 36 39 0 0 0
M  V30 BEGIN ATOM
M  V30 1 O 8.6602 4.4999 0.0 0
M  V30 2 C 7.7942 3.9999 0.0 0
M  V30 3 O 6.9282 4.5 0.0 0
M  V30 4 C 7.7942 2.9999 0.0 0 CFG=1
M  V30 5 O 6.9282 2.4999 0.0 0
M  V30 6 C 8.6602 2.4999 0.0 0
M  V30 7 C 6.9282 3.5 0.0 0
M  V30 8 C 6.9282 1.4999 0.0 0
M  V30 9 C 8.6602 1.4999 0.0 0
M  V30 10 C 7.7942 0.9999 0.0 0
M  V30 11 C 6.0621 0.9999 0.0 0
M  V30 12 C 7.7942 0.0 0.0 0
M  V30 13 C 6.0621 0.0 0.0 0
M  V30 14 C 6.9282 -0.5 0.0 0
M  V30 15 O 5.1961 -0.5 0.0 0
M  V30 16 C 4.3301 0.0 0.0 0
M  V30 17 C 3.4641 -0.5 0.0 0
M  V30 18 C 2.598 0.0 0.0 0
M  V30 19 C 1.732 -0.5 0.0 0
M  V30 20 O 0.866 0.0 0.0 0
M  V30 21 C 0.0 -0.5 0.0 0
M  V30 22 C -0.866 0.0 0.0 0
M  V30 23 C 0.0 -1.4999 0.0 0
M  V30 24 C -1.732 -0.4999 0.0 0
M  V30 25 C -0.866 1.0 0.0 0
M  V30 26 C -0.866 -1.9999 0.0 0
M  V30 27 C -1.732 -1.4999 0.0 0
M  V30 28 C 0.0 1.5 0.0 0
M  V30 29 O -2.598 -1.9999 0.0 0
M  V30 30 C 0.0 2.5 0.0 0
M  V30 31 C -2.598 -2.9999 0.0 0
M  V30 32 C -3.4641 -3.4999 0.0 0
M  V30 33 C -1.732 -3.4999 0.0 0
M  V30 34 C -3.4641 -4.4999 0.0 0
M  V30 35 C -1.732 -4.4999 0.0 0
M  V30 36 C -2.598 -4.9999 0.0 0
M  V30 END ATOM
M  V30 BEGIN BOND
M  V30 1 2 1 2
M  V30 2 1 2 3
M  V30 3 1 2 4
M  V30 4 1 4 5
M  V30 5 1 4 6
M  V30 6 1 4 7 CFG=1
M  V30 7 1 5 8
M  V30 8 1 6 9
M  V30 9 2 8 10
M  V30 10 1 8 11
M  V30 11 1 10 12
M  V30 12 2 11 13
M  V30 13 2 12 14
M  V30 14 1 13 15
M  V30 15 1 15 16
M  V30 16 1 16 17
M  V30 17 1 17 18
M  V30 18 1 18 19
M  V30 19 1 19 20
M  V30 20 1 20 21
M  V30 21 2 21 22
M  V30 22 1 21 23
M  V30 23 1 22 24
M  V30 24 1 22 25
M  V30 25 2 23 26
M  V30 26 2 24 27
M  V30 27 1 25 28
M  V30 28 1 27 29
M  V30 29 1 28 30
M  V30 30 1 29 31
M  V30 31 2 31 32
M  V30 32 1 31 33
M  V30 33 1 32 34
M  V30 34 2 33 35
M  V30 35 2 34 36
M  V30 36 1 9 10
M  V30 37 1 13 14
M  V30 38 1 26 27
M  V30 39 1 35 36
M  V30 END BOND
M  V30 BEGIN COLLECTION
M  V30 MDLV30/STERAC1 ATOMS=(1 4)
M  V30 END COLLECTION
M  V30 END CTAB
M  END
>  <Molecule ChEMBL ID>
CHEMBL110071

>  <Smiles>
CCCc1cc(Oc2ccccc2)ccc1OCCCCOc1ccc2c(c1)OC(C)(C(=O)O)CC2

>  <IC50_nM>
5100

>  <Assay Description>
In vitro binding affinity for human peroxisome proliferator activated receptor gamma using scintillation proximity assay (SPA)

$$$$
CHEMBL1426715
Actelion Java MolfileCreator 2.0

  0  0  0  0  0  0              0 V3000
M  V30 BEGIN CTAB
M  V30 COUNTS 23 25 0 0 0
M  V30 BEGIN ATOM
M  V30 1 Br 1.732 1.4999 0.0 0
M  V30 2 C 2.598 1.0 0.0 0
M  V30 3 C 2.598 0.0 0.0 0
M  V30 4 C 3.4641 1.4999 0.0 0
M  V30 5 C 3.4641 -0.5 0.0 0
M  V30 6 C 1.732 -0.5 0.0 0
M  V30 7 C 4.3301 1.0 0.0 0
M  V30 8 C 4.3301 0.0 0.0 0
M  V30 9 S 0.866 0.0 0.0 0
M  V30 10 C 0.0 -0.5 0.0 0
M  V30 11 N -0.9135 -0.0932 0.0 0
M  V30 12 N -0.1045 -1.4945 0.0 0
M  V30 13 N -1.5826 -0.8364 0.0 0
M  V30 14 N -1.0826 -1.7024 0.0 0
M  V30 15 C 0.6386 -2.1636 0.0 0
M  V30 16 C 0.4307 -3.1418 0.0 0
M  V30 17 C 1.5896 -1.8546 0.0 0
M  V30 18 C 1.1738 -3.8109 0.0 0
M  V30 19 C 2.3328 -2.5237 0.0 0
M  V30 20 C 2.1249 -3.5019 0.0 0
M  V30 21 C 2.868 -4.171 0.0 0
M  V30 22 O 2.6601 -5.1491 0.0 0
M  V30 23 O 3.8191 -3.862 0.0 0
M  V30 END ATOM
M  V30 BEGIN BOND
M  V30 1 1 1 2
M  V30 2 2 2 3
M  V30 3 1 2 4
M  V30 4 1 3 5
M  V30 5 1 3 6
M  V30 6 2 4 7
M  V30 7 2 5 8
M  V30 8 1 6 9
M  V30 9 1 9 10
M  V30 10 2 10 11
M  V30 11 1 10 12
M  V30 12 1 11 13
M  V30 13 1 12 14
M  V30 14 1 12 15
M  V30 15 2 15 16
M  V30 16 1 15 17
M  V30 17 1 16 18
M  V30 18 2 17 19
M  V30 19 2 18 20
M  V30 20 1 20 21
M  V30 21 2 21 22
M  V30 22 1 21 23
M  V30 23 1 7 8
M  V30 24 2 13 14
M  V30 25 1 19 20
M  V30 END BOND
M  V30 END CTAB
M  END
>  <Molecule ChEMBL ID>
CHEMBL1426715

>  <Smiles>
O=C(O)c1ccc(-n2nnnc2SCc2ccccc2Br)cc1

>  <IC50_nM>
5132

>  <Assay Description>
Displacement of fluormone from human PPARgamma LBD expressed in Escherichia coli BL21 DE3 by fluorescence polarization assay

$$$$
CHEMBL476008
Actelion Java MolfileCreator 2.0

  0  0  0  0  0  0              0 V3000
M  V30 BEGIN CTAB
M  V30 COUNTS 23 24 0 0 0
M  V30 BEGIN ATOM
M  V30 1 O 5.1961 1.4999 0.0 0
M  V30 2 C 4.3301 0.9999 0.0 0
M  V30 3 O 3.4641 1.5 0.0 0
M  V30 4 C 4.3301 0.0 0.0 0 CFG=1
M  V30 5 N 3.4641 -0.5 0.0 0
M  V30 6 C 5.1961 -0.5 0.0 0
M  V30 7 C 2.598 0.0 0.0 0
M  V30 8 C 6.0621 0.0 0.0 0
M  V30 9 O 2.598 1.0 0.0 0
M  V30 10 C 1.732 -0.5 0.0 0 CFG=1
M  V30 11 O 6.9282 -0.5 0.0 0
M  V30 12 O 6.0621 0.9999 0.0 0
M  V30 13 N 1.732 -1.5 0.0 0
M  V30 14 C 0.866 0.0 0.0 0
M  V30 15 C 0.0 -0.5 0.0 0
M  V30 16 C -0.9135 -0.0932 0.0 0
M  V30 17 C -0.1045 -1.4945 0.0 0
M  V30 18 C -1.5826 -0.8364 0.0 0
M  V30 19 C -1.2225 0.8577 0.0 0
M  V30 20 N -1.0826 -1.7024 0.0 0
M  V30 21 C -2.5608 -0.6284 0.0 0
M  V30 22 C -2.2007 1.0657 0.0 0
M  V30 23 C -2.8698 0.3225 0.0 0
M  V30 END ATOM
M  V30 BEGIN BOND
M  V30 1 2 1 2
M  V30 2 1 2 3
M  V30 3 1 2 4
M  V30 4 1 4 5 CFG=3
M  V30 5 1 4 6
M  V30 6 1 5 7
M  V30 7 1 6 8
M  V30 8 2 7 9
M  V30 9 1 7 10
M  V30 10 2 8 11
M  V30 11 1 8 12
M  V30 12 1 10 13 CFG=1
M  V30 13 1 10 14
M  V30 14 1 14 15
M  V30 15 1 15 16
M  V30 16 2 15 17
M  V30 17 2 16 18
M  V30 18 1 16 19
M  V30 19 1 17 20
M  V30 20 1 18 21
M  V30 21 2 19 22
M  V30 22 2 21 23
M  V30 23 1 18 20
M  V30 24 1 22 23
M  V30 END BOND
M  V30 BEGIN COLLECTION
M  V30 MDLV30/STEABS ATOMS=(2 4 10)
M  V30 END COLLECTION
M  V30 END CTAB
M  END
>  <Molecule ChEMBL ID>
CHEMBL476008

>  <Smiles>
N[C@@H](Cc1c[nH]c2ccccc12)C(=O)N[C@@H](CC(=O)O)C(=O)O

>  <IC50_nM>
5200

>  <Assay Description>
Antagonist activity at human PPARgamma receptor expressed in Saccharomyces cerevisiae AH109 co-transfected with mouse CBP assessed as inhibition of rosiglitazone-induced LBD-CBP interaction by alpha-galactosidase based yeast two hybrid assay

$$$$
CHEMBL5287866
Actelion Java MolfileCreator 2.0

  0  0  0  0  0  0              0 V3000
M  V30 BEGIN CTAB
M  V30 COUNTS 27 29 0 0 0
M  V30 BEGIN ATOM
M  V30 1 Cl 6.0621 -1.9999 0.0 0
M  V30 2 C 5.1961 -1.4999 0.0 0
M  V30 3 C 5.1961 -0.5 0.0 0
M  V30 4 C 4.3301 -1.9999 0.0 0
M  V30 5 C 6.0621 0.0 0.0 0
M  V30 6 C 4.3301 0.0 0.0 0
M  V30 7 C 3.4641 -1.5 0.0 0
M  V30 8 O 6.0621 0.9999 0.0 0
M  V30 9 N 6.9282 -0.5 0.0 0
M  V30 10 C 3.4641 -0.5 0.0 0
M  V30 11 C 7.7942 0.0 0.0 0
M  V30 12 C 2.598 0.0 0.0 0
M  V30 13 C 8.6602 -0.5 0.0 0
M  V30 14 C 7.7942 0.9999 0.0 0
M  V30 15 O 2.598 1.0 0.0 0
M  V30 16 N 1.732 -0.5 0.0 0
M  V30 17 C 9.5262 0.0 0.0 0
M  V30 18 C 8.6602 1.4999 0.0 0
M  V30 19 C 0.866 0.0 0.0 0
M  V30 20 C 9.5262 0.9999 0.0 0
M  V30 21 C 0.0 -0.5 0.0 0
M  V30 22 C -0.866 0.0 0.0 0
M  V30 23 C 0.0 -1.4999 0.0 0
M  V30 24 C -1.732 -0.4999 0.0 0
M  V30 25 C -0.866 -1.9999 0.0 0
M  V30 26 C -1.732 -1.4999 0.0 0
M  V30 27 F -2.598 -1.9999 0.0 0
M  V30 END ATOM
M  V30 BEGIN BOND
M  V30 1 1 1 2
M  V30 2 2 2 3
M  V30 3 1 2 4
M  V30 4 1 3 5
M  V30 5 1 3 6
M  V30 6 2 4 7
M  V30 7 2 5 8
M  V30 8 1 5 9
M  V30 9 2 6 10
M  V30 10 1 9 11
M  V30 11 1 10 12
M  V30 12 2 11 13
M  V30 13 1 11 14
M  V30 14 2 12 15
M  V30 15 1 12 16
M  V30 16 1 13 17
M  V30 17 2 14 18
M  V30 18 1 16 19
M  V30 19 2 17 20
M  V30 20 1 19 21
M  V30 21 2 21 22
M  V30 22 1 21 23
M  V30 23 1 22 24
M  V30 24 2 23 25
M  V30 25 2 24 26
M  V30 26 1 26 27
M  V30 27 1 7 10
M  V30 28 1 18 20
M  V30 29 1 25 26
M  V30 END BOND
M  V30 END CTAB
M  END
>  <Molecule ChEMBL ID>
CHEMBL5287866

>  <Smiles>
O=C(NCc1ccc(F)cc1)c1ccc(Cl)c(C(=O)Nc2ccccc2)c1

>  <IC50_nM>
5250

>  <Assay Description>
Inverse agonist activity at human PPARgamma in human RT112/84 transfected with NLuc-fused FABP4 assessed as reduction in PPARgamma transactivation incubated for 6 to 18 hrs by Nano-Glo luciferase assay

$$$$
CHEMBL1092237
Actelion Java MolfileCreator 2.0

  0  0  0  0  0  0              0 V3000
M  V30 BEGIN CTAB
M  V30 COUNTS 34 37 0 0 0
M  V30 BEGIN ATOM
M  V30 1 Cl 8.0472 10.2749 0.0 0
M  V30 2 C 7.4595 9.4658 0.0 0
M  V30 3 C 6.4649 9.5704 0.0 0
M  V30 4 C 7.8662 8.5523 0.0 0
M  V30 5 C 5.8772 8.7614 0.0 0
M  V30 6 C 7.2784 7.7433 0.0 0
M  V30 7 C 6.2839 7.8478 0.0 0
M  V30 8 C 5.6961 7.0388 0.0 0
M  V30 9 O 4.6961 7.0388 0.0 0
M  V30 10 N 6.0051 6.0877 0.0 0
M  V30 11 C 4.3871 6.0877 0.0 0
M  V30 12 C 5.1961 5.5 0.0 0
M  V30 13 C 3.436 5.7787 0.0 0
M  V30 14 C 5.1961 4.5 0.0 0
M  V30 15 O 4.3301 4.0 0.0 0
M  V30 16 C 4.3301 3.0 0.0 0
M  V30 17 C 3.4641 2.5 0.0 0
M  V30 18 C 5.1961 2.5 0.0 0
M  V30 19 C 3.4641 1.5 0.0 0
M  V30 20 C 5.1961 1.5 0.0 0
M  V30 21 C 4.3301 1.0 0.0 0
M  V30 22 C 2.598 1.0 0.0 0
M  V30 23 N 2.598 0.0 0.0 0
M  V30 24 C 3.4641 -0.5 0.0 0
M  V30 25 C 1.732 -0.5 0.0 0
M  V30 26 O 3.4641 -1.5 0.0 0
M  V30 27 O 4.3301 0.0 0.0 0
M  V30 28 C 0.866 0.0 0.0 0
M  V30 29 C 5.1961 -0.5 0.0 0
M  V30 30 O 0.866 1.0 0.0 0
M  V30 31 O 0.0 -0.5 0.0 0
M  V30 32 C 5.4549 -1.4659 0.0 0
M  V30 33 C 6.162 -0.2411 0.0 0
M  V30 34 C 6.4208 -1.2071 0.0 0
M  V30 END ATOM
M  V30 BEGIN BOND
M  V30 1 1 1 2
M  V30 2 2 2 3
M  V30 3 1 2 4
M  V30 4 1 3 5
M  V30 5 2 4 6
M  V30 6 2 5 7
M  V30 7 1 7 8
M  V30 8 1 8 9
M  V30 9 2 8 10
M  V30 10 1 9 11
M  V30 11 1 10 12
M  V30 12 1 11 13
M  V30 13 1 12 14
M  V30 14 1 14 15
M  V30 15 1 15 16
M  V30 16 2 16 17
M  V30 17 1 16 18
M  V30 18 1 17 19
M  V30 19 2 18 20
M  V30 20 2 19 21
M  V30 21 1 19 22
M  V30 22 1 22 23
M  V30 23 1 23 24
M  V30 24 1 23 25
M  V30 25 2 24 26
M  V30 26 1 24 27
M  V30 27 1 25 28
M  V30 28 1 27 29
M  V30 29 2 28 30
M  V30 30 1 28 31
M  V30 31 1 29 32
M  V30 32 1 29 33
M  V30 33 1 32 34
M  V30 34 1 6 7
M  V30 35 2 11 12
M  V30 36 1 20 21
M  V30 37 1 33 34
M  V30 END BOND
M  V30 END CTAB
M  END
>  <Molecule ChEMBL ID>
CHEMBL1092237

>  <Smiles>
Cc1oc(-c2ccc(Cl)cc2)nc1COc1cccc(CN(CC(=O)O)C(=O)OC2CCC2)c1

>  <IC50_nM>
5293

>  <Assay Description>
Binding affinity to human His-tagged PPARgamma LBD (Q203-Y477) expressed in Escherichia coli BL21 (DE3) by fluorescence polarization assay

$$$$
CHEMBL5290209
Actelion Java MolfileCreator 2.0

  0  0  0  0  0  0              0 V3000
M  V30 BEGIN CTAB
M  V30 COUNTS 32 35 0 0 0
M  V30 BEGIN ATOM
M  V30 1 O 6.0621 -3.0 0.0 0
M  V30 2 C 6.0621 -1.9999 0.0 0
M  V30 3 O 6.9282 -1.5 0.0 0
M  V30 4 C 5.1961 -1.4999 0.0 0
M  V30 5 C 5.1961 -0.5 0.0 0
M  V30 6 C 4.3301 -1.9999 0.0 0
M  V30 7 C 4.3301 0.0 0.0 0
M  V30 8 C 3.4641 -1.5 0.0 0
M  V30 9 C 3.4641 -0.5 0.0 0
M  V30 10 C 2.598 0.0 0.0 0
M  V30 11 C 1.732 -0.5 0.0 0
M  V30 12 O 1.732 -1.5 0.0 0
M  V30 13 N 0.866 0.0 0.0 0
M  V30 14 C 0.0 -0.5 0.0 0
M  V30 15 C -0.866 0.0 0.0 0
M  V30 16 C 0.0 -1.4999 0.0 0
M  V30 17 N -1.0739 0.9781 0.0 0
M  V30 18 C -1.732 -0.4999 0.0 0
M  V30 19 C -0.866 -1.9999 0.0 0
M  V30 20 C -2.0684 1.0826 0.0 0
M  V30 21 N -2.4751 0.1691 0.0 0
M  V30 22 C -1.732 -1.4999 0.0 0
M  V30 23 C -3.4533 -0.0387 0.0 0
M  V30 24 C -4.1224 0.7043 0.0 0
M  V30 25 C -3.7623 -0.9898 0.0 0
M  V30 26 C -5.1006 0.4964 0.0 0
M  V30 27 C -4.7405 -1.1977 0.0 0
M  V30 28 C -5.4096 -0.4546 0.0 0
M  V30 29 C -6.3877 -0.6625 0.0 0
M  V30 30 C -6.1798 -1.6406 0.0 0
M  V30 31 C -7.3659 -0.8704 0.0 0
M  V30 32 C -6.5956 0.3156 0.0 0
M  V30 END ATOM
M  V30 BEGIN BOND
M  V30 1 2 1 2
M  V30 2 1 2 3
M  V30 3 1 2 4
M  V30 4 2 4 5
M  V30 5 1 4 6
M  V30 6 1 5 7
M  V30 7 2 6 8
M  V30 8 2 7 9
M  V30 9 1 9 10
M  V30 10 1 10 11
M  V30 11 2 11 12
M  V30 12 1 11 13
M  V30 13 1 13 14
M  V30 14 2 14 15
M  V30 15 1 14 16
M  V30 16 1 15 17
M  V30 17 1 15 18
M  V30 18 2 16 19
M  V30 19 2 17 20
M  V30 20 1 18 21
M  V30 21 2 18 22
M  V30 22 1 21 23
M  V30 23 2 23 24
M  V30 24 1 23 25
M  V30 25 1 24 26
M  V30 26 2 25 27
M  V30 27 2 26 28
M  V30 28 1 28 29
M  V30 29 1 29 30
M  V30 30 1 29 31
M  V30 31 1 29 32
M  V30 32 1 8 9
M  V30 33 1 19 22
M  V30 34 1 20 21
M  V30 35 1 27 28
M  V30 END BOND
M  V30 END CTAB
M  END
>  <Molecule ChEMBL ID>
CHEMBL5290209

>  <Smiles>
CC(C)(C)c1ccc(-n2cnc3c(NC(=O)Cc4ccc(C(=O)O)cc4)cccc32)cc1

>  <IC50_nM>
5300

>  <Assay Description>
Partial agonist activity at PPARgamma (unknown origin) in presence of GW1929

$$$$
CHEMBL1091196
Actelion Java MolfileCreator 2.0

  0  0  0  0  0  0              0 V3000
M  V30 BEGIN CTAB
M  V30 COUNTS 34 37 0 0 0
M  V30 BEGIN ATOM
M  V30 1 Cl -2.9776 -16.1623 0.0 0
M  V30 2 C -2.0959 -14.9488 0.0 0
M  V30 3 C -0.6042 -15.1056 0.0 0
M  V30 4 C -2.7061 -13.5785 0.0 0
M  V30 5 C 0.2774 -13.8921 0.0 0
M  V30 6 C -1.8244 -12.3649 0.0 0
M  V30 7 C -0.3326 -12.5217 0.0 0
M  V30 8 C 0.549 -11.3082 0.0 0
M  V30 9 O 2.049 -11.3082 0.0 0
M  V30 10 N 0.0855 -9.8816 0.0 0
M  V30 11 C 2.5125 -9.8816 0.0 0
M  V30 12 C 1.299 -9.0 0.0 0
M  V30 13 C 3.9391 -9.4181 0.0 0
M  V30 14 C 1.299 -7.5 0.0 0
M  V30 15 O 2.598 -6.75 0.0 0
M  V30 16 C 2.598 -5.25 0.0 0
M  V30 17 C 3.8971 -4.5 0.0 0
M  V30 18 C 1.299 -4.5 0.0 0
M  V30 19 C 3.8971 -3.0 0.0 0
M  V30 20 C 1.299 -2.9999 0.0 0
M  V30 21 C 2.598 -2.25 0.0 0
M  V30 22 C 5.1961 -2.25 0.0 0
M  V30 23 N 5.1961 -0.75 0.0 0
M  V30 24 C 3.8971 0.0 0.0 0
M  V30 25 C 6.4951 0.0 0.0 0
M  V30 26 O 3.8971 1.5 0.0 0
M  V30 27 O 2.598 -0.75 0.0 0
M  V30 28 C 7.7942 -0.75 0.0 0
M  V30 29 C 1.299 0.0 0.0 0
M  V30 30 O 9.0932 0.0 0.0 0
M  V30 31 O 7.7942 -2.25 0.0 0
M  V30 32 C 0.0 -0.75 0.0 0
M  V30 33 C -1.5 -0.7499 0.0 0
M  V30 34 C -0.75 -2.049 0.0 0
M  V30 END ATOM
M  V30 BEGIN BOND
M  V30 1 1 1 2
M  V30 2 2 2 3
M  V30 3 1 2 4
M  V30 4 1 3 5
M  V30 5 2 4 6
M  V30 6 2 5 7
M  V30 7 1 7 8
M  V30 8 1 8 9
M  V30 9 2 8 10
M  V30 10 1 9 11
M  V30 11 1 10 12
M  V30 12 1 11 13
M  V30 13 1 12 14
M  V30 14 1 14 15
M  V30 15 1 15 16
M  V30 16 2 16 17
M  V30 17 1 16 18
M  V30 18 1 17 19
M  V30 19 2 18 20
M  V30 20 2 19 21
M  V30 21 1 19 22
M  V30 22 1 22 23
M  V30 23 1 23 24
M  V30 24 1 23 25
M  V30 25 2 24 26
M  V30 26 1 24 27
M  V30 27 1 25 28
M  V30 28 1 27 29
M  V30 29 2 28 30
M  V30 30 1 28 31
M  V30 31 1 29 32
M  V30 32 1 32 33
M  V30 33 1 32 34
M  V30 34 1 6 7
M  V30 35 2 11 12
M  V30 36 1 20 21
M  V30 37 1 33 34
M  V30 END BOND
M  V30 END CTAB
M  END
>  <Molecule ChEMBL ID>
CHEMBL1091196

>  <Smiles>
Cc1oc(-c2ccc(Cl)cc2)nc1COc1cccc(CN(CC(=O)O)C(=O)OCC2CC2)c1

>  <IC50_nM>
5336

>  <Assay Description>
Binding affinity to human His-tagged PPARgamma LBD (Q203-Y477) expressed in Escherichia coli BL21 (DE3) by fluorescence polarization assay

$$$$
CHEMBL234799
Actelion Java MolfileCreator 2.0

  0  0  0  0  0  0              0 V3000
M  V30 BEGIN CTAB
M  V30 COUNTS 33 36 0 0 0
M  V30 BEGIN ATOM
M  V30 1 F 4.6961 2.366 0.0 0
M  V30 2 C 5.1961 1.5 0.0 0
M  V30 3 F 6.0621 2.0 0.0 0
M  V30 4 F 5.6961 0.6339 0.0 0
M  V30 5 C 4.3301 1.0 0.0 0
M  V30 6 C 3.4641 1.5 0.0 0
M  V30 7 C 4.3301 0.0 0.0 0
M  V30 8 C 2.598 0.9999 0.0 0
M  V30 9 C 3.4641 -0.4999 0.0 0
M  V30 10 C 2.598 0.0 0.0 0
M  V30 11 O 1.732 -0.5 0.0 0
M  V30 12 C 0.866 0.0 0.0 0
M  V30 13 C 0.0 -0.5 0.0 0
M  V30 14 C -0.866 0.0 0.0 0
M  V30 15 C 0.0 -1.4999 0.0 0
M  V30 16 C -1.732 -0.4999 0.0 0
M  V30 17 C -0.866 -1.9999 0.0 0
M  V30 18 C -1.732 -1.4999 0.0 0
M  V30 19 C -2.598 0.0 0.0 0
M  V30 20 O -2.598 1.0 0.0 0
M  V30 21 C -3.4641 1.5 0.0 0
M  V30 22 C -3.4641 2.5 0.0 0
M  V30 23 C -4.3301 1.0 0.0 0
M  V30 24 C -4.3301 3.0 0.0 0
M  V30 25 C -5.1961 1.5 0.0 0
M  V30 26 O -4.538 3.9781 0.0 0
M  V30 27 C -5.1961 2.5 0.0 0
M  V30 28 C -5.5325 4.0826 0.0 0
M  V30 29 C -5.9392 3.1691 0.0 0
M  V30 30 C -6.9174 2.9612 0.0 0
M  V30 31 C -7.5865 3.7043 0.0 0
M  V30 32 O -7.2775 4.6554 0.0 0
M  V30 33 O -8.5647 3.4964 0.0 0
M  V30 END ATOM
M  V30 BEGIN BOND
M  V30 1 1 1 2
M  V30 2 1 2 3
M  V30 3 1 2 4
M  V30 4 1 2 5
M  V30 5 2 5 6
M  V30 6 1 5 7
M  V30 7 1 6 8
M  V30 8 2 7 9
M  V30 9 2 8 10
M  V30 10 1 10 11
M  V30 11 1 11 12
M  V30 12 1 12 13
M  V30 13 2 13 14
M  V30 14 1 13 15
M  V30 15 1 14 16
M  V30 16 2 15 17
M  V30 17 2 16 18
M  V30 18 1 16 19
M  V30 19 1 19 20
M  V30 20 1 20 21
M  V30 21 2 21 22
M  V30 22 1 21 23
M  V30 23 1 22 24
M  V30 24 2 23 25
M  V30 25 1 24 26
M  V30 26 2 24 27
M  V30 27 1 26 28
M  V30 28 1 27 29
M  V30 29 1 29 30
M  V30 30 1 30 31
M  V30 31 2 31 32
M  V30 32 1 31 33
M  V30 33 1 9 10
M  V30 34 1 17 18
M  V30 35 1 25 27
M  V30 36 2 28 29
M  V30 END BOND
M  V30 END CTAB
M  END
>  <Molecule ChEMBL ID>
CHEMBL234799

>  <Smiles>
O=C(O)Cc1coc2cc(OCc3cccc(COc4ccc(C(F)(F)F)cc4)c3)ccc12

>  <IC50_nM>
5395.11

>  <Assay Description>
Agonist activity at PPARgamma

$$$$
CHEMBL438088
Actelion Java MolfileCreator 2.0

  0  0  0  0  0  0              0 V3000
M  V30 BEGIN CTAB
M  V30 COUNTS 34 37 0 0 0
M  V30 BEGIN ATOM
M  V30 1 O 4.3301 0.0 0.0 0
M  V30 2 C 3.4641 -0.5 0.0 0
M  V30 3 O 3.4641 -1.5 0.0 0
M  V30 4 C 2.598 0.0 0.0 0 CFG=1
M  V30 5 O 1.732 -0.5 0.0 0
M  V30 6 C 2.598 1.0 0.0 0
M  V30 7 C 0.866 0.0 0.0 0
M  V30 8 C 1.732 1.5 0.0 0
M  V30 9 C 0.0 -0.5 0.0 0
M  V30 10 C 0.866 1.0 0.0 0
M  V30 11 C 1.732 2.5 0.0 0
M  V30 12 C 0.0 1.5 0.0 0
M  V30 13 C 0.866 3.0 0.0 0
M  V30 14 C 0.0 2.5 0.0 0
M  V30 15 C -0.951 1.1909 0.0 0
M  V30 16 N -0.951 2.809 0.0 0
M  V30 17 C -1.5388 2.0 0.0 0
M  V30 18 C -1.26 3.76 0.0 0
M  V30 19 C -2.2382 3.9679 0.0 0
M  V30 20 N -2.6449 4.8815 0.0 0
M  V30 21 C -2.9813 3.2988 0.0 0
M  V30 22 C -3.6394 4.777 0.0 0
M  V30 23 O -3.8473 3.7988 0.0 0
M  V30 24 C -2.8768 2.3043 0.0 0
M  V30 25 C -4.3086 5.5201 0.0 0
M  V30 26 C -5.2867 5.3122 0.0 0
M  V30 27 C -3.9995 6.4712 0.0 0
M  V30 28 O -5.5957 4.3611 0.0 0
M  V30 29 C -5.9558 6.0553 0.0 0
M  V30 30 C -4.6687 7.2143 0.0 0
M  V30 31 C -6.5739 4.1532 0.0 0
M  V30 32 C -5.6468 7.0064 0.0 0
M  V30 33 C -7.243 4.8964 0.0 0
M  V30 34 C -6.8829 3.2022 0.0 0
M  V30 END ATOM
M  V30 BEGIN BOND
M  V30 1 2 1 2
M  V30 2 1 2 3
M  V30 3 1 2 4
M  V30 4 1 4 5 CFG=1
M  V30 5 1 4 6
M  V30 6 1 5 7
M  V30 7 1 6 8
M  V30 8 1 7 9
M  V30 9 2 8 10
M  V30 10 1 8 11
M  V30 11 1 10 12
M  V30 12 2 11 13
M  V30 13 2 12 14
M  V30 14 1 12 15
M  V30 15 1 14 16
M  V30 16 2 15 17
M  V30 17 1 16 18
M  V30 18 1 18 19
M  V30 19 1 19 20
M  V30 20 2 19 21
M  V30 21 2 20 22
M  V30 22 1 21 23
M  V30 23 1 21 24
M  V30 24 1 22 25
M  V30 25 2 25 26
M  V30 26 1 25 27
M  V30 27 1 26 28
M  V30 28 1 26 29
M  V30 29 2 27 30
M  V30 30 1 28 31
M  V30 31 2 29 32
M  V30 32 1 31 33
M  V30 33 1 31 34
M  V30 34 1 13 14
M  V30 35 1 16 17
M  V30 36 1 22 23
M  V30 37 1 30 32
M  V30 END BOND
M  V30 BEGIN COLLECTION
M  V30 MDLV30/STERAC1 ATOMS=(1 4)
M  V30 END COLLECTION
M  V30 END CTAB
M  END
>  <Molecule ChEMBL ID>
CHEMBL438088

>  <Smiles>
CCOC(Cc1ccc2c(ccn2Cc2nc(-c3ccccc3OC(C)C)oc2C)c1)C(=O)O

>  <IC50_nM>
5400

>  <Assay Description>
Binding affinity to PPARgamma by radio ligand binding assay

$$$$
CHEMBL234799
Actelion Java MolfileCreator 2.0

  0  0  0  0  0  0              0 V3000
M  V30 BEGIN CTAB
M  V30 COUNTS 33 36 0 0 0
M  V30 BEGIN ATOM
M  V30 1 F 4.6961 2.366 0.0 0
M  V30 2 C 5.1961 1.5 0.0 0
M  V30 3 F 6.0621 2.0 0.0 0
M  V30 4 F 5.6961 0.6339 0.0 0
M  V30 5 C 4.3301 1.0 0.0 0
M  V30 6 C 3.4641 1.5 0.0 0
M  V30 7 C 4.3301 0.0 0.0 0
M  V30 8 C 2.598 0.9999 0.0 0
M  V30 9 C 3.4641 -0.4999 0.0 0
M  V30 10 C 2.598 0.0 0.0 0
M  V30 11 O 1.732 -0.5 0.0 0
M  V30 12 C 0.866 0.0 0.0 0
M  V30 13 C 0.0 -0.5 0.0 0
M  V30 14 C -0.866 0.0 0.0 0
M  V30 15 C 0.0 -1.4999 0.0 0
M  V30 16 C -1.732 -0.4999 0.0 0
M  V30 17 C -0.866 -1.9999 0.0 0
M  V30 18 C -1.732 -1.4999 0.0 0
M  V30 19 C -2.598 0.0 0.0 0
M  V30 20 O -2.598 1.0 0.0 0
M  V30 21 C -3.4641 1.5 0.0 0
M  V30 22 C -3.4641 2.5 0.0 0
M  V30 23 C -4.3301 1.0 0.0 0
M  V30 24 C -4.3301 3.0 0.0 0
M  V30 25 C -5.1961 1.5 0.0 0
M  V30 26 O -4.538 3.9781 0.0 0
M  V30 27 C -5.1961 2.5 0.0 0
M  V30 28 C -5.5325 4.0826 0.0 0
M  V30 29 C -5.9392 3.1691 0.0 0
M  V30 30 C -6.9174 2.9612 0.0 0
M  V30 31 C -7.5865 3.7043 0.0 0
M  V30 32 O -7.2775 4.6554 0.0 0
M  V30 33 O -8.5647 3.4964 0.0 0
M  V30 END ATOM
M  V30 BEGIN BOND
M  V30 1 1 1 2
M  V30 2 1 2 3
M  V30 3 1 2 4
M  V30 4 1 2 5
M  V30 5 2 5 6
M  V30 6 1 5 7
M  V30 7 1 6 8
M  V30 8 2 7 9
M  V30 9 2 8 10
M  V30 10 1 10 11
M  V30 11 1 11 12
M  V30 12 1 12 13
M  V30 13 2 13 14
M  V30 14 1 13 15
M  V30 15 1 14 16
M  V30 16 2 15 17
M  V30 17 2 16 18
M  V30 18 1 16 19
M  V30 19 1 19 20
M  V30 20 1 20 21
M  V30 21 2 21 22
M  V30 22 1 21 23
M  V30 23 1 22 24
M  V30 24 2 23 25
M  V30 25 1 24 26
M  V30 26 2 24 27
M  V30 27 1 26 28
M  V30 28 1 27 29
M  V30 29 1 29 30
M  V30 30 1 30 31
M  V30 31 2 31 32
M  V30 32 1 31 33
M  V30 33 1 9 10
M  V30 34 1 17 18
M  V30 35 1 25 27
M  V30 36 2 28 29
M  V30 END BOND
M  V30 END CTAB
M  END
>  <Molecule ChEMBL ID>
CHEMBL234799

>  <Smiles>
O=C(O)Cc1coc2cc(OCc3cccc(COc4ccc(C(F)(F)F)cc4)c3)ccc12

>  <IC50_nM>
5400

>  <Assay Description>
Displacement of [3H]5-(4-(3-(5-methyl-2-phenyloxazol-4-yl)propanoyl)benzyl)thiazolidine-2,4-dione from human PPARgamma after 2 hrs by SPA

$$$$
CHEMBL4860371
Actelion Java MolfileCreator 2.0

  0  0  0  0  0  0              0 V3000
M  V30 BEGIN CTAB
M  V30 COUNTS 34 38 0 0 0
M  V30 BEGIN ATOM
M  V30 1 O 0.866 -1.9999 0.0 0
M  V30 2 C 1.732 -1.5 0.0 0
M  V30 3 O 1.732 -0.5 0.0 0
M  V30 4 C 2.598 -2.0 0.0 0
M  V30 5 C 0.866 0.0 0.0 0
M  V30 6 C 2.598 -2.9999 0.0 0
M  V30 7 C 3.4641 -1.5 0.0 0
M  V30 8 C 0.0 -0.5 0.0 0
M  V30 9 C 3.4641 -3.5 0.0 0
M  V30 10 C 4.3301 -2.0 0.0 0
M  V30 11 C -0.866 0.0 0.0 0
M  V30 12 C 0.0 -1.4999 0.0 0
M  V30 13 C 4.3301 -3.0 0.0 0
M  V30 14 C -0.866 1.0 0.0 0
M  V30 15 C -1.732 -0.4999 0.0 0
M  V30 16 C -0.866 -1.9999 0.0 0
M  V30 17 C -1.732 1.5 0.0 0
M  V30 18 C 0.0 1.5 0.0 0
M  V30 19 C -2.598 0.0 0.0 0
M  V30 20 C -1.732 -1.4999 0.0 0
M  V30 21 C -2.598 1.0 0.0 0
M  V30 22 C -1.732 2.5 0.0 0
M  V30 23 C 0.0 2.4999 0.0 0
M  V30 24 C 0.866 0.9999 0.0 0
M  V30 25 C -0.866 3.0 0.0 0
M  V30 26 O 1.732 1.4999 0.0 0
M  V30 27 C 2.598 0.9999 0.0 0
M  V30 28 O 2.598 0.0 0.0 0
M  V30 29 C 3.4641 1.4999 0.0 0
M  V30 30 C 4.3301 0.9999 0.0 0
M  V30 31 C 3.4641 2.4999 0.0 0
M  V30 32 C 5.1961 1.4999 0.0 0
M  V30 33 C 4.3301 2.9999 0.0 0
M  V30 34 C 5.1961 2.4999 0.0 0
M  V30 END ATOM
M  V30 BEGIN BOND
M  V30 1 2 1 2
M  V30 2 1 2 3
M  V30 3 1 2 4
M  V30 4 1 3 5
M  V30 5 2 4 6
M  V30 6 1 4 7
M  V30 7 1 5 8
M  V30 8 1 6 9
M  V30 9 2 7 10
M  V30 10 1 8 11
M  V30 11 2 8 12
M  V30 12 2 9 13
M  V30 13 2 11 14
M  V30 14 1 11 15
M  V30 15 1 12 16
M  V30 16 1 14 17
M  V30 17 1 14 18
M  V30 18 2 15 19
M  V30 19 1 15 20
M  V30 20 2 17 21
M  V30 21 1 17 22
M  V30 22 2 18 23
M  V30 23 1 18 24
M  V30 24 2 22 25
M  V30 25 1 24 26
M  V30 26 1 26 27
M  V30 27 2 27 28
M  V30 28 1 27 29
M  V30 29 2 29 30
M  V30 30 1 29 31
M  V30 31 1 30 32
M  V30 32 2 31 33
M  V30 33 2 32 34
M  V30 34 1 10 13
M  V30 35 2 16 20
M  V30 36 1 19 21
M  V30 37 1 23 25
M  V30 38 1 33 34
M  V30 END BOND
M  V30 END CTAB
M  END
>  <Molecule ChEMBL ID>
CHEMBL4860371

>  <Smiles>
O=C(OCc1cccc2ccc3cccc(COC(=O)c4ccccc4)c3c12)c1ccccc1

>  <IC50_nM>
5400

>  <Assay Description>
Antagonist activity at PPARgamma (unknown origin) expressed in human LNCaP cells assessed as suppression of pioglitazone-induced PPAR response element driven firefly luciferase activity measured after 24 hrs by dual luciferase reporter assay

$$$$
CHEMBL476121
Actelion Java MolfileCreator 2.0

  0  0  0  0  0  0              0 V3000
M  V30 BEGIN CTAB
M  V30 COUNTS 25 27 0 0 0
M  V30 BEGIN ATOM
M  V30 1 O 3.4641 -3.4999 0.0 0
M  V30 2 C 2.598 -2.9999 0.0 0
M  V30 3 C 2.598 -1.9999 0.0 0
M  V30 4 C 1.732 -3.5 0.0 0
M  V30 5 C 1.732 -1.5 0.0 0
M  V30 6 C 3.4641 -1.4999 0.0 0
M  V30 7 C 0.866 -2.9999 0.0 0
M  V30 8 O 0.866 -2.0 0.0 0
M  V30 9 C 1.732 -0.5 0.0 0
M  V30 10 O 4.3301 -1.9999 0.0 0
M  V30 11 C 3.4641 -0.4999 0.0 0
M  V30 12 C 0.0 -3.4999 0.0 0
M  V30 13 O 0.866 0.0 0.0 0
M  V30 14 C 2.598 0.0 0.0 0
M  V30 15 O 4.3301 0.0 0.0 0
M  V30 16 C -0.866 -2.9999 0.0 0
M  V30 17 C 0.0 -4.4999 0.0 0
M  V30 18 C 0.0 -0.5 0.0 0
M  V30 19 O 2.598 1.0 0.0 0
M  V30 20 C 4.3301 1.0 0.0 0
M  V30 21 C -1.732 -3.4999 0.0 0
M  V30 22 C -0.866 -4.9999 0.0 0
M  V30 23 C 1.732 1.5 0.0 0
M  V30 24 C -1.732 -4.4999 0.0 0
M  V30 25 O -2.598 -4.9999 0.0 0
M  V30 END ATOM
M  V30 BEGIN BOND
M  V30 1 2 1 2
M  V30 2 1 2 3
M  V30 3 1 2 4
M  V30 4 2 3 5
M  V30 5 1 3 6
M  V30 6 2 4 7
M  V30 7 1 5 8
M  V30 8 1 5 9
M  V30 9 1 6 10
M  V30 10 2 6 11
M  V30 11 1 7 12
M  V30 12 1 9 13
M  V30 13 2 9 14
M  V30 14 1 11 15
M  V30 15 2 12 16
M  V30 16 1 12 17
M  V30 17 1 13 18
M  V30 18 1 14 19
M  V30 19 1 15 20
M  V30 20 1 16 21
M  V30 21 2 17 22
M  V30 22 1 19 23
M  V30 23 2 21 24
M  V30 24 1 24 25
M  V30 25 1 7 8
M  V30 26 1 11 14
M  V30 27 1 22 24
M  V30 END BOND
M  V30 END CTAB
M  END
>  <Molecule ChEMBL ID>
CHEMBL476121

>  <Smiles>
COc1c(OC)c(O)c2c(=O)cc(-c3ccc(O)cc3)oc2c1OC

>  <IC50_nM>
5400

>  <Assay Description>
Antagonist activity at PPARgamma (unknown origin) expressed in human LNCaP cells assessed as suppression of pioglitazone-induced PPAR response element driven firefly luciferase activity measured after 24 hrs by dual luciferase reporter assay

$$$$
CHEMBL4802042
Actelion Java MolfileCreator 2.0

  0  0  0  0  0  0              0 V3000
M  V30 BEGIN CTAB
M  V30 COUNTS 42 47 0 0 0
M  V30 BEGIN ATOM
M  V30 1 Cl 1.3133 -3.0329 0.0 0
M  V30 2 C 2.6266 -2.2747 0.0 0
M  V30 3 C 3.9399 -3.0329 0.0 0
M  V30 4 C 2.6266 -0.7582 0.0 0
M  V30 5 C 5.2532 -2.2747 0.0 0
M  V30 6 C 3.9399 -4.5494 0.0 0
M  V30 7 C 3.9399 0.0 0.0 0
M  V30 8 C 1.3133 0.0 0.0 0
M  V30 9 N 5.2532 -0.7582 0.0 0
M  V30 10 C 6.5665 -3.0329 0.0 0
M  V30 11 C 5.2532 -5.3076 0.0 0
M  V30 12 O 3.9399 1.5164 0.0 0
M  V30 13 C 0.0 -0.7582 0.0 0
M  V30 14 C 6.377 -4.5257 0.0 0
M  V30 15 C 5.2532 -6.8241 0.0 0 CFG=1
M  V30 16 C 2.6266 2.2747 0.0 0
M  V30 17 C -1.3133 0.0 0.0 0
M  V30 18 C 0.0 -2.2747 0.0 0
M  V30 19 O 3.9399 -7.5824 0.0 0
M  V30 20 C 6.5665 -6.0659 0.0 0
M  V30 21 C 6.5665 -7.5824 0.0 0
M  V30 22 C -2.6266 -0.7582 0.0 0
M  V30 23 C -1.3133 -3.0329 0.0 0
M  V30 24 C 8.0694 -6.6346 0.0 0
M  V30 25 C 6.9456 -4.5494 0.0 0
M  V30 26 C 6.5665 -9.0988 0.0 0
M  V30 27 C 7.7477 -7.0309 0.0 0
M  V30 28 C -2.6266 -2.2747 0.0 0
M  V30 29 C 9.1931 -6.0659 0.0 0
M  V30 30 C 7.8798 -3.7912 0.0 0
M  V30 31 C 7.8798 -9.8571 0.0 0
M  V30 32 C 9.1931 -7.5824 0.0 0
M  V30 33 N -3.9399 -3.0329 0.0 0
M  V30 34 C 9.1931 -4.5494 0.0 0
M  V30 35 N 9.1931 -9.0988 0.0 0
M  V30 36 N -5.3253 -2.4161 0.0 0
M  V30 37 C -4.0984 -4.5411 0.0 0
M  V30 38 C 10.5065 -9.8571 0.0 0
M  V30 39 C -6.34 -3.5431 0.0 0
M  V30 40 C -5.5817 -4.8564 0.0 0
M  V30 41 O 10.5065 -11.3736 0.0 0
M  V30 42 C 11.8198 -9.0988 0.0 0
M  V30 END ATOM
M  V30 BEGIN BOND
M  V30 1 1 1 2
M  V30 2 1 2 3
M  V30 3 2 2 4
M  V30 4 1 3 5
M  V30 5 2 3 6
M  V30 6 1 4 7
M  V30 7 1 4 8
M  V30 8 1 5 9
M  V30 9 2 5 10
M  V30 10 1 6 11
M  V30 11 1 7 12
M  V30 12 1 8 13
M  V30 13 1 10 14
M  V30 14 1 11 15
M  V30 15 1 12 16
M  V30 16 2 13 17
M  V30 17 1 13 18
M  V30 18 1 15 19
M  V30 19 1 15 20 CFG=3
M  V30 20 1 15 21
M  V30 21 1 17 22
M  V30 22 2 18 23
M  V30 23 2 20 24
M  V30 24 1 20 25
M  V30 25 1 21 26
M  V30 26 1 21 27
M  V30 27 2 22 28
M  V30 28 1 24 29
M  V30 29 2 25 30
M  V30 30 1 26 31
M  V30 31 1 27 32
M  V30 32 1 28 33
M  V30 33 2 29 34
M  V30 34 1 31 35
M  V30 35 1 33 36
M  V30 36 1 33 37
M  V30 37 1 35 38
M  V30 38 2 36 39
M  V30 39 2 37 40
M  V30 40 2 38 41
M  V30 41 1 38 42
M  V30 42 2 7 9
M  V30 43 2 11 14
M  V30 44 1 23 28
M  V30 45 1 30 34
M  V30 46 1 32 35
M  V30 47 1 39 40
M  V30 END BOND
M  V30 BEGIN COLLECTION
M  V30 MDLV30/STEABS ATOMS=(1 15)
M  V30 END COLLECTION
M  V30 END CTAB
M  END
>  <Molecule ChEMBL ID>
CHEMBL4802042

>  <Smiles>
COc1nc2ccc([C@@](O)(c3ccccc3)C3CCN(C(C)=O)CC3)cc2c(Cl)c1Cc1ccc(-n2cccn2)cc1

>  <IC50_nM>
5400

>  <Assay Description>
PPARgamma In-house nuclear receptor screen

$$$$
CHEMBL3398432
Actelion Java MolfileCreator 2.0

  0  0  0  0  0  0              0 V3000
M  V30 BEGIN CTAB
M  V30 COUNTS 35 38 0 0 0
M  V30 BEGIN ATOM
M  V30 1 O 3.4641 -0.5 0.0 0
M  V30 2 C 2.598 0.0 0.0 0
M  V30 3 O 1.732 -0.5 0.0 0
M  V30 4 N 2.598 1.0 0.0 0
M  V30 5 C 0.866 0.0 0.0 0
M  V30 6 C 3.407 1.5877 0.0 0
M  V30 7 C 1.789 1.5877 0.0 0
M  V30 8 C 0.0 -0.5 0.0 0
M  V30 9 C 3.098 2.5388 0.0 0 CFG=1
M  V30 10 C 2.098 2.5388 0.0 0 CFG=1
M  V30 11 C 3.6858 3.3478 0.0 0
M  V30 12 C 1.5102 3.3478 0.0 0
M  V30 13 C 4.6803 3.2433 0.0 0
M  V30 14 C 3.2791 4.2614 0.0 0
M  V30 15 C 0.5157 3.2433 0.0 0
M  V30 16 C 5.2681 4.0523 0.0 0
M  V30 17 C 3.8669 5.0704 0.0 0
M  V30 18 O 0.109 2.3297 0.0 0
M  V30 19 O -0.072 4.0523 0.0 0
M  V30 20 O 6.2626 3.9478 0.0 0
M  V30 21 C 4.8614 4.9658 0.0 0
M  V30 22 C 6.8504 4.7568 0.0 0
M  V30 23 C 7.8449 4.6523 0.0 0
M  V30 24 C 8.4327 5.4613 0.0 0
M  V30 25 N 9.4327 5.4613 0.0 0
M  V30 26 C 8.1237 6.4123 0.0 0
M  V30 27 C 9.7417 6.4123 0.0 0
M  V30 28 O 8.9327 7.0001 0.0 0
M  V30 29 C 7.1727 6.7213 0.0 0
M  V30 30 C 10.6928 6.7213 0.0 0
M  V30 31 C 11.436 6.0522 0.0 0
M  V30 32 C 10.9007 7.6995 0.0 0
M  V30 33 C 12.387 6.3612 0.0 0
M  V30 34 C 11.8518 8.0085 0.0 0
M  V30 35 C 12.5949 7.3394 0.0 0
M  V30 END ATOM
M  V30 BEGIN BOND
M  V30 1 2 1 2
M  V30 2 1 2 3
M  V30 3 1 2 4
M  V30 4 1 3 5
M  V30 5 1 4 6
M  V30 6 1 4 7
M  V30 7 1 5 8
M  V30 8 1 6 9
M  V30 9 1 7 10
M  V30 10 1 9 11 CFG=1
M  V30 11 1 10 12 CFG=3
M  V30 12 2 11 13
M  V30 13 1 11 14
M  V30 14 1 12 15
M  V30 15 1 13 16
M  V30 16 2 14 17
M  V30 17 2 15 18
M  V30 18 1 15 19
M  V30 19 1 16 20
M  V30 20 2 16 21
M  V30 21 1 20 22
M  V30 22 1 22 23
M  V30 23 1 23 24
M  V30 24 1 24 25
M  V30 25 2 24 26
M  V30 26 2 25 27
M  V30 27 1 26 28
M  V30 28 1 26 29
M  V30 29 1 27 30
M  V30 30 2 30 31
M  V30 31 1 30 32
M  V30 32 1 31 33
M  V30 33 2 32 34
M  V30 34 2 33 35
M  V30 35 1 9 10
M  V30 36 1 17 21
M  V30 37 1 27 28
M  V30 38 1 34 35
M  V30 END BOND
M  V30 BEGIN COLLECTION
M  V30 MDLV30/STEABS ATOMS=(2 9 10)
M  V30 END COLLECTION
M  V30 END CTAB
M  END
>  <Molecule ChEMBL ID>
CHEMBL3398432

>  <Smiles>
CCOC(=O)N1C[C@H](CC(=O)O)[C@@H](c2cccc(OCCc3nc(-c4ccccc4)oc3C)c2)C1

>  <IC50_nM>
5460

>  <Assay Description>
Binding affinity to PPARgamma (unknown origin) using fluorescein-tagged dual PPARalpha/gamma activator by homogeneous fluorescence polarization binding assay

$$$$
CHEMBL3596275
Actelion Java MolfileCreator 2.0

  0  0  0  0  0  0              0 V3000
M  V30 BEGIN CTAB
M  V30 COUNTS 30 33 0 0 0
M  V30 BEGIN ATOM
M  V30 1 Cl 2.598 0.9999 0.0 0
M  V30 2 C 1.732 1.4999 0.0 0
M  V30 3 C 0.866 0.9999 0.0 0
M  V30 4 C 1.732 2.4999 0.0 0
M  V30 5 C 0.0 1.5 0.0 0
M  V30 6 C 0.866 0.0 0.0 0
M  V30 7 C 0.866 3.0 0.0 0
M  V30 8 O -0.866 1.0 0.0 0
M  V30 9 C 0.0 2.5 0.0 0
M  V30 10 O 1.732 -0.5 0.0 0
M  V30 11 C 0.0 -0.5 0.0 0
M  V30 12 C -1.732 1.5 0.0 0
M  V30 13 N -0.9135 -0.0932 0.0 0
M  V30 14 N -0.1045 -1.4945 0.0 0
M  V30 15 C -1.5826 -0.8364 0.0 0
M  V30 16 C -1.0826 -1.7024 0.0 0
M  V30 17 C 0.5646 -2.2376 0.0 0
M  V30 18 C -2.5771 -0.7318 0.0 0
M  V30 19 C -1.3916 -2.6534 0.0 0
M  V30 20 C 0.2555 -3.1887 0.0 0
M  V30 21 C -2.9839 0.1816 0.0 0
M  V30 22 C -3.1649 -1.5408 0.0 0
M  V30 23 C -0.7225 -3.3966 0.0 0
M  V30 24 F -2.3961 0.9906 0.0 0
M  V30 25 C -3.9784 0.2861 0.0 0
M  V30 26 C -4.1595 -1.4363 0.0 0
M  V30 27 C -4.5662 -0.5228 0.0 0
M  V30 28 C -5.5607 -0.4182 0.0 0
M  V30 29 O -5.9675 0.4952 0.0 0
M  V30 30 O -6.1485 -1.2273 0.0 0
M  V30 END ATOM
M  V30 BEGIN BOND
M  V30 1 1 1 2
M  V30 2 2 2 3
M  V30 3 1 2 4
M  V30 4 1 3 5
M  V30 5 1 3 6
M  V30 6 2 4 7
M  V30 7 1 5 8
M  V30 8 2 5 9
M  V30 9 2 6 10
M  V30 10 1 6 11
M  V30 11 1 8 12
M  V30 12 2 11 13
M  V30 13 1 11 14
M  V30 14 1 13 15
M  V30 15 1 14 16
M  V30 16 1 14 17
M  V30 17 1 15 18
M  V30 18 1 16 19
M  V30 19 1 17 20
M  V30 20 2 18 21
M  V30 21 1 18 22
M  V30 22 1 19 23
M  V30 23 1 21 24
M  V30 24 1 21 25
M  V30 25 2 22 26
M  V30 26 2 25 27
M  V30 27 1 27 28
M  V30 28 2 28 29
M  V30 29 1 28 30
M  V30 30 1 7 9
M  V30 31 2 15 16
M  V30 32 1 20 23
M  V30 33 1 26 27
M  V30 END BOND
M  V30 END CTAB
M  END
>  <Molecule ChEMBL ID>
CHEMBL3596275

>  <Smiles>
COc1cccc(Cl)c1C(=O)c1nc(-c2ccc(C(=O)O)cc2F)c2n1CCCC2

>  <IC50_nM>
5500

>  <Assay Description>
Displacement of fluormone PPARgamma green from GST-tagged human PPARgamma-LBD after 2 hrs by fluorescence polarization assay

$$$$
CHEMBL232395
Actelion Java MolfileCreator 2.0

  0  0  0  0  0  0              0 V3000
M  V30 BEGIN CTAB
M  V30 COUNTS 35 38 0 0 0
M  V30 BEGIN ATOM
M  V30 1 S 6.0621 -2.0 0.0 0
M  V30 2 C 5.1961 -1.4999 0.0 0
M  V30 3 C 6.0621 -3.0 0.0 0
M  V30 4 C 5.1961 -0.5 0.0 0
M  V30 5 C 4.3301 -1.9999 0.0 0
M  V30 6 C 6.9282 -3.5 0.0 0
M  V30 7 O 6.0621 0.0 0.0 0
M  V30 8 C 4.3301 0.0 0.0 0
M  V30 9 C 3.4641 -1.5 0.0 0
M  V30 10 C 6.9282 -4.5 0.0 0
M  V30 11 C 7.7942 -3.0 0.0 0
M  V30 12 C 6.0621 1.0 0.0 0
M  V30 13 C 3.4641 -0.5 0.0 0
M  V30 14 C 4.3301 1.0 0.0 0
M  V30 15 C 7.7942 -5.0 0.0 0
M  V30 16 C 8.6602 -3.5 0.0 0
M  V30 17 C 5.1961 1.5 0.0 0
M  V30 18 O 2.598 0.0 0.0 0
M  V30 19 C 8.6602 -4.5 0.0 0
M  V30 20 C 1.732 -0.5 0.0 0
M  V30 21 O 9.5262 -5.0 0.0 0
M  V30 22 C 0.866 0.0 0.0 0
M  V30 23 C 9.5262 -6.0 0.0 0
M  V30 24 O 0.866 1.0 0.0 0
M  V30 25 O 0.0 -0.5 0.0 0
M  V30 26 C 10.3923 -6.5 0.0 0
M  V30 27 C 10.3923 -7.5 0.0 0
M  V30 28 C 11.2583 -6.0 0.0 0
M  V30 29 C 11.2583 -8.0 0.0 0
M  V30 30 C 12.1243 -6.5 0.0 0
M  V30 31 C 12.1243 -7.5 0.0 0
M  V30 32 C 12.9903 -8.0 0.0 0
M  V30 33 F 13.4903 -7.1339 0.0 0
M  V30 34 F 13.8564 -8.5 0.0 0
M  V30 35 F 12.4903 -8.866 0.0 0
M  V30 END ATOM
M  V30 BEGIN BOND
M  V30 1 1 1 2
M  V30 2 1 1 3
M  V30 3 2 2 4
M  V30 4 1 2 5
M  V30 5 1 3 6
M  V30 6 1 4 7
M  V30 7 1 4 8
M  V30 8 2 5 9
M  V30 9 2 6 10
M  V30 10 1 6 11
M  V30 11 1 7 12
M  V30 12 2 8 13
M  V30 13 1 8 14
M  V30 14 1 10 15
M  V30 15 2 11 16
M  V30 16 1 12 17
M  V30 17 1 13 18
M  V30 18 2 15 19
M  V30 19 1 18 20
M  V30 20 1 19 21
M  V30 21 1 20 22
M  V30 22 1 21 23
M  V30 23 2 22 24
M  V30 24 1 22 25
M  V30 25 1 23 26
M  V30 26 2 26 27
M  V30 27 1 26 28
M  V30 28 1 27 29
M  V30 29 2 28 30
M  V30 30 2 29 31
M  V30 31 1 31 32
M  V30 32 1 32 33
M  V30 33 1 32 34
M  V30 34 1 32 35
M  V30 35 1 9 13
M  V30 36 1 14 17
M  V30 37 1 16 19
M  V30 38 1 30 31
M  V30 END BOND
M  V30 END CTAB
M  END
>  <Molecule ChEMBL ID>
CHEMBL232395

>  <Smiles>
O=C(O)COc1ccc(SCc2ccc(OCc3ccc(C(F)(F)F)cc3)cc2)c2c1CCCO2

>  <IC50_nM>
5559.04

>  <Assay Description>
Agonist activity at PPARgamma

$$$$
CHEMBL232395
Actelion Java MolfileCreator 2.0

  0  0  0  0  0  0              0 V3000
M  V30 BEGIN CTAB
M  V30 COUNTS 35 38 0 0 0
M  V30 BEGIN ATOM
M  V30 1 S 6.0621 -2.0 0.0 0
M  V30 2 C 5.1961 -1.4999 0.0 0
M  V30 3 C 6.0621 -3.0 0.0 0
M  V30 4 C 5.1961 -0.5 0.0 0
M  V30 5 C 4.3301 -1.9999 0.0 0
M  V30 6 C 6.9282 -3.5 0.0 0
M  V30 7 O 6.0621 0.0 0.0 0
M  V30 8 C 4.3301 0.0 0.0 0
M  V30 9 C 3.4641 -1.5 0.0 0
M  V30 10 C 6.9282 -4.5 0.0 0
M  V30 11 C 7.7942 -3.0 0.0 0
M  V30 12 C 6.0621 1.0 0.0 0
M  V30 13 C 3.4641 -0.5 0.0 0
M  V30 14 C 4.3301 1.0 0.0 0
M  V30 15 C 7.7942 -5.0 0.0 0
M  V30 16 C 8.6602 -3.5 0.0 0
M  V30 17 C 5.1961 1.5 0.0 0
M  V30 18 O 2.598 0.0 0.0 0
M  V30 19 C 8.6602 -4.5 0.0 0
M  V30 20 C 1.732 -0.5 0.0 0
M  V30 21 O 9.5262 -5.0 0.0 0
M  V30 22 C 0.866 0.0 0.0 0
M  V30 23 C 9.5262 -6.0 0.0 0
M  V30 24 O 0.866 1.0 0.0 0
M  V30 25 O 0.0 -0.5 0.0 0
M  V30 26 C 10.3923 -6.5 0.0 0
M  V30 27 C 10.3923 -7.5 0.0 0
M  V30 28 C 11.2583 -6.0 0.0 0
M  V30 29 C 11.2583 -8.0 0.0 0
M  V30 30 C 12.1243 -6.5 0.0 0
M  V30 31 C 12.1243 -7.5 0.0 0
M  V30 32 C 12.9903 -8.0 0.0 0
M  V30 33 F 13.4903 -7.1339 0.0 0
M  V30 34 F 13.8564 -8.5 0.0 0
M  V30 35 F 12.4903 -8.866 0.0 0
M  V30 END ATOM
M  V30 BEGIN BOND
M  V30 1 1 1 2
M  V30 2 1 1 3
M  V30 3 2 2 4
M  V30 4 1 2 5
M  V30 5 1 3 6
M  V30 6 1 4 7
M  V30 7 1 4 8
M  V30 8 2 5 9
M  V30 9 2 6 10
M  V30 10 1 6 11
M  V30 11 1 7 12
M  V30 12 2 8 13
M  V30 13 1 8 14
M  V30 14 1 10 15
M  V30 15 2 11 16
M  V30 16 1 12 17
M  V30 17 1 13 18
M  V30 18 2 15 19
M  V30 19 1 18 20
M  V30 20 1 19 21
M  V30 21 1 20 22
M  V30 22 1 21 23
M  V30 23 2 22 24
M  V30 24 1 22 25
M  V30 25 1 23 26
M  V30 26 2 26 27
M  V30 27 1 26 28
M  V30 28 1 27 29
M  V30 29 2 28 30
M  V30 30 2 29 31
M  V30 31 1 31 32
M  V30 32 1 32 33
M  V30 33 1 32 34
M  V30 34 1 32 35
M  V30 35 1 9 13
M  V30 36 1 14 17
M  V30 37 1 16 19
M  V30 38 1 30 31
M  V30 END BOND
M  V30 END CTAB
M  END
>  <Molecule ChEMBL ID>
CHEMBL232395

>  <Smiles>
O=C(O)COc1ccc(SCc2ccc(OCc3ccc(C(F)(F)F)cc3)cc2)c2c1CCCO2

>  <IC50_nM>
5560

>  <Assay Description>
Displacement of [3H]5-(4-(3-(5-methyl-2-phenyloxazol-4-yl)propanoyl)benzyl)thiazolidine-2,4-dione from human PPARgamma after 2 hrs by SPA assay

$$$$
CHEMBL232395
Actelion Java MolfileCreator 2.0

  0  0  0  0  0  0              0 V3000
M  V30 BEGIN CTAB
M  V30 COUNTS 35 38 0 0 0
M  V30 BEGIN ATOM
M  V30 1 S 6.0621 -2.0 0.0 0
M  V30 2 C 5.1961 -1.4999 0.0 0
M  V30 3 C 6.0621 -3.0 0.0 0
M  V30 4 C 5.1961 -0.5 0.0 0
M  V30 5 C 4.3301 -1.9999 0.0 0
M  V30 6 C 6.9282 -3.5 0.0 0
M  V30 7 O 6.0621 0.0 0.0 0
M  V30 8 C 4.3301 0.0 0.0 0
M  V30 9 C 3.4641 -1.5 0.0 0
M  V30 10 C 6.9282 -4.5 0.0 0
M  V30 11 C 7.7942 -3.0 0.0 0
M  V30 12 C 6.0621 1.0 0.0 0
M  V30 13 C 3.4641 -0.5 0.0 0
M  V30 14 C 4.3301 1.0 0.0 0
M  V30 15 C 7.7942 -5.0 0.0 0
M  V30 16 C 8.6602 -3.5 0.0 0
M  V30 17 C 5.1961 1.5 0.0 0
M  V30 18 O 2.598 0.0 0.0 0
M  V30 19 C 8.6602 -4.5 0.0 0
M  V30 20 C 1.732 -0.5 0.0 0
M  V30 21 O 9.5262 -5.0 0.0 0
M  V30 22 C 0.866 0.0 0.0 0
M  V30 23 C 9.5262 -6.0 0.0 0
M  V30 24 O 0.866 1.0 0.0 0
M  V30 25 O 0.0 -0.5 0.0 0
M  V30 26 C 10.3923 -6.5 0.0 0
M  V30 27 C 10.3923 -7.5 0.0 0
M  V30 28 C 11.2583 -6.0 0.0 0
M  V30 29 C 11.2583 -8.0 0.0 0
M  V30 30 C 12.1243 -6.5 0.0 0
M  V30 31 C 12.1243 -7.5 0.0 0
M  V30 32 C 12.9903 -8.0 0.0 0
M  V30 33 F 13.4903 -7.1339 0.0 0
M  V30 34 F 13.8564 -8.5 0.0 0
M  V30 35 F 12.4903 -8.866 0.0 0
M  V30 END ATOM
M  V30 BEGIN BOND
M  V30 1 1 1 2
M  V30 2 1 1 3
M  V30 3 2 2 4
M  V30 4 1 2 5
M  V30 5 1 3 6
M  V30 6 1 4 7
M  V30 7 1 4 8
M  V30 8 2 5 9
M  V30 9 2 6 10
M  V30 10 1 6 11
M  V30 11 1 7 12
M  V30 12 2 8 13
M  V30 13 1 8 14
M  V30 14 1 10 15
M  V30 15 2 11 16
M  V30 16 1 12 17
M  V30 17 1 13 18
M  V30 18 2 15 19
M  V30 19 1 18 20
M  V30 20 1 19 21
M  V30 21 1 20 22
M  V30 22 1 21 23
M  V30 23 2 22 24
M  V30 24 1 22 25
M  V30 25 1 23 26
M  V30 26 2 26 27
M  V30 27 1 26 28
M  V30 28 1 27 29
M  V30 29 2 28 30
M  V30 30 2 29 31
M  V30 31 1 31 32
M  V30 32 1 32 33
M  V30 33 1 32 34
M  V30 34 1 32 35
M  V30 35 1 9 13
M  V30 36 1 14 17
M  V30 37 1 16 19
M  V30 38 1 30 31
M  V30 END BOND
M  V30 END CTAB
M  END
>  <Molecule ChEMBL ID>
CHEMBL232395

>  <Smiles>
O=C(O)COc1ccc(SCc2ccc(OCc3ccc(C(F)(F)F)cc3)cc2)c2c1CCCO2

>  <IC50_nM>
5560

>  <Assay Description>
Agonist activity at PPARgamma

$$$$
CHEMBL190334
Actelion Java MolfileCreator 2.0

  0  0  0  0  0  0              0 V3000
M  V30 BEGIN CTAB
M  V30 COUNTS 31 33 0 0 0
M  V30 BEGIN ATOM
M  V30 1 Cl 6.0621 1.0 0.0 0
M  V30 2 C 6.0621 0.0 0.0 0
M  V30 3 C 5.1961 -0.5 0.0 0
M  V30 4 C 6.9282 -0.4999 0.0 0
M  V30 5 O 4.3301 0.0 0.0 0
M  V30 6 C 5.1961 -1.4999 0.0 0
M  V30 7 C 6.9282 -1.4999 0.0 0
M  V30 8 C 3.4641 -0.5 0.0 0
M  V30 9 C 6.0621 -1.9999 0.0 0
M  V30 10 C 7.7942 -1.9999 0.0 0
M  V30 11 C 2.598 0.0 0.0 0
M  V30 12 C 8.6602 -1.4999 0.0 0
M  V30 13 C 1.732 -0.5 0.0 0
M  V30 14 C 8.1602 -0.6339 0.0 0
M  V30 15 C 9.5262 -0.9999 0.0 0
M  V30 16 C 9.1602 -2.366 0.0 0
M  V30 17 O 0.866 0.0 0.0 0
M  V30 18 C 0.0 -0.5 0.0 0
M  V30 19 C 0.0 -1.4999 0.0 0
M  V30 20 C -0.866 0.0 0.0 0
M  V30 21 C -0.866 -1.9999 0.0 0
M  V30 22 C -1.732 -0.4999 0.0 0
M  V30 23 C -1.732 -1.4999 0.0 0
M  V30 24 C -1.0739 -2.9781 0.0 0
M  V30 25 O -2.4751 -2.1691 0.0 0
M  V30 26 C -2.0684 -3.0826 0.0 0 CFG=2
M  V30 27 C -3.067 -3.0303 0.0 0
M  V30 28 C -2.5684 -3.9487 0.0 0
M  V30 29 O -3.6117 -3.869 0.0 0
M  V30 30 O -3.521 -2.1393 0.0 0
M  V30 31 C -2.0684 -4.8147 0.0 0
M  V30 END ATOM
M  V30 BEGIN BOND
M  V30 1 1 1 2
M  V30 2 2 2 3
M  V30 3 1 2 4
M  V30 4 1 3 5
M  V30 5 1 3 6
M  V30 6 2 4 7
M  V30 7 1 5 8
M  V30 8 2 6 9
M  V30 9 1 7 10
M  V30 10 1 8 11
M  V30 11 1 10 12
M  V30 12 1 11 13
M  V30 13 1 12 14
M  V30 14 1 12 15
M  V30 15 1 12 16
M  V30 16 1 13 17
M  V30 17 1 17 18
M  V30 18 2 18 19
M  V30 19 1 18 20
M  V30 20 1 19 21
M  V30 21 2 20 22
M  V30 22 2 21 23
M  V30 23 1 21 24
M  V30 24 1 23 25
M  V30 25 1 24 26
M  V30 26 1 26 27
M  V30 27 1 26 28 CFG=3
M  V30 28 2 27 29
M  V30 29 1 27 30
M  V30 30 1 28 31
M  V30 31 1 7 9
M  V30 32 1 22 23
M  V30 33 1 25 26
M  V30 END BOND
M  V30 BEGIN COLLECTION
M  V30 MDLV30/STERAC1 ATOMS=(1 26)
M  V30 END COLLECTION
M  V30 END CTAB
M  END
>  <Molecule ChEMBL ID>
CHEMBL190334

>  <Smiles>
CCC1(C(=O)O)Cc2cc(OCCCOc3ccc(CC(C)(C)C)cc3Cl)ccc2O1

>  <IC50_nM>
5600

>  <Assay Description>
In vitro binding affinity for PPAR-gamma

$$$$
CHEMBL3596271
Actelion Java MolfileCreator 2.0

  0  0  0  0  0  0              0 V3000
M  V30 BEGIN CTAB
M  V30 COUNTS 31 34 0 0 0
M  V30 BEGIN ATOM
M  V30 1 F 2.598 -3.0 0.0 0
M  V30 2 C 2.598 -1.9999 0.0 0
M  V30 3 C 3.4641 -1.5 0.0 0
M  V30 4 C 1.732 -1.5 0.0 0
M  V30 5 C 4.3301 -2.0 0.0 0
M  V30 6 C 3.4641 -0.5 0.0 0
M  V30 7 C 1.732 -0.5 0.0 0
M  V30 8 N 4.4346 -2.9945 0.0 0
M  V30 9 C 5.2436 -1.5932 0.0 0
M  V30 10 C 2.598 0.0 0.0 0
M  V30 11 C 0.866 0.0 0.0 0
M  V30 12 C 5.4128 -3.2024 0.0 0
M  V30 13 N 5.9128 -2.3364 0.0 0
M  V30 14 C 5.5526 -0.6422 0.0 0
M  V30 15 O 0.866 1.0 0.0 0
M  V30 16 O 0.0 -0.5 0.0 0
M  V30 17 C 5.8195 -4.1159 0.0 0
M  V30 18 C 6.8909 -2.1284 0.0 0
M  V30 19 C 6.5308 -0.4342 0.0 0
M  V30 20 O 5.2317 -4.9249 0.0 0
M  V30 21 C 6.814 -4.2205 0.0 0
M  V30 22 C 7.1999 -1.1774 0.0 0
M  V30 23 C 7.2207 -5.134 0.0 0
M  V30 24 C 7.4018 -3.4114 0.0 0
M  V30 25 C 8.2153 -5.2385 0.0 0
M  V30 26 C 6.633 -5.943 0.0 0
M  V30 27 C 8.3963 -3.516 0.0 0
M  V30 28 C 8.8031 -4.4295 0.0 0
M  V30 29 F 7.442 -6.5308 0.0 0
M  V30 30 F 6.0452 -6.752 0.0 0
M  V30 31 F 5.8239 -5.3552 0.0 0
M  V30 END ATOM
M  V30 BEGIN BOND
M  V30 1 1 1 2
M  V30 2 2 2 3
M  V30 3 1 2 4
M  V30 4 1 3 5
M  V30 5 1 3 6
M  V30 6 2 4 7
M  V30 7 1 5 8
M  V30 8 2 5 9
M  V30 9 2 6 10
M  V30 10 1 7 11
M  V30 11 2 8 12
M  V30 12 1 9 13
M  V30 13 1 9 14
M  V30 14 2 11 15
M  V30 15 1 11 16
M  V30 16 1 12 17
M  V30 17 1 13 18
M  V30 18 1 14 19
M  V30 19 2 17 20
M  V30 20 1 17 21
M  V30 21 1 18 22
M  V30 22 2 21 23
M  V30 23 1 21 24
M  V30 24 1 23 25
M  V30 25 1 23 26
M  V30 26 2 24 27
M  V30 27 2 25 28
M  V30 28 1 26 29
M  V30 29 1 26 30
M  V30 30 1 26 31
M  V30 31 1 7 10
M  V30 32 1 12 13
M  V30 33 1 19 22
M  V30 34 1 27 28
M  V30 END BOND
M  V30 END CTAB
M  END
>  <Molecule ChEMBL ID>
CHEMBL3596271

>  <Smiles>
O=C(O)c1ccc(-c2nc(C(=O)c3ccccc3C(F)(F)F)n3c2CCCC3)c(F)c1

>  <IC50_nM>
5600

>  <Assay Description>
Displacement of fluormone PPARgamma green from GST-tagged human PPARgamma-LBD after 2 hrs by fluorescence polarization assay

$$$$
CHEMBL178659
Actelion Java MolfileCreator 2.0

  0  0  0  0  0  0              0 V3000
M  V30 BEGIN CTAB
M  V30 COUNTS 35 38 0 0 0
M  V30 BEGIN ATOM
M  V30 1 Cl 9.0932 1.5 0.0 0
M  V30 2 C 9.0932 0.0 0.0 0
M  V30 3 C 7.7942 -0.75 0.0 0
M  V30 4 C 10.3923 -0.75 0.0 0
M  V30 5 O 6.4951 0.0 0.0 0
M  V30 6 C 7.7942 -2.25 0.0 0
M  V30 7 C 10.3923 -2.25 0.0 0
M  V30 8 C 5.1961 -0.75 0.0 0
M  V30 9 C 9.0932 -3.0 0.0 0
M  V30 10 C 11.6913 -3.0 0.0 0
M  V30 11 C 3.8971 0.0 0.0 0
M  V30 12 C 11.6913 -4.5 0.0 0
M  V30 13 C 12.9903 -2.25 0.0 0
M  V30 14 C 2.598 -0.75 0.0 0
M  V30 15 C 12.9903 -5.25 0.0 0
M  V30 16 C 14.2894 -3.0 0.0 0
M  V30 17 O 1.299 0.0 0.0 0
M  V30 18 C 14.2894 -4.5 0.0 0
M  V30 19 C 0.0 -0.75 0.0 0
M  V30 20 C 15.0394 -5.799 0.0 0
M  V30 21 C 15.7894 -4.4999 0.0 0
M  V30 22 C -1.299 0.0 0.0 0
M  V30 23 C 0.0 -2.25 0.0 0
M  V30 24 C -2.598 -0.75 0.0 0
M  V30 25 C -1.299 -3.0 0.0 0
M  V30 26 O -3.8971 0.0 0.0 0
M  V30 27 C -2.598 -2.25 0.0 0
M  V30 28 C -5.1961 -0.75 0.0 0 CFG=1
M  V30 29 C -3.8971 -3.0 0.0 0
M  V30 30 C -5.1961 0.75 0.0 0
M  V30 31 C -5.1961 -2.25 0.0 0
M  V30 32 C -6.4951 0.0 0.0 0
M  V30 33 O -6.4951 1.5 0.0 0
M  V30 34 O -3.8971 1.5 0.0 0
M  V30 35 C -7.7942 -0.75 0.0 0
M  V30 END ATOM
M  V30 BEGIN BOND
M  V30 1 1 1 2
M  V30 2 2 2 3
M  V30 3 1 2 4
M  V30 4 1 3 5
M  V30 5 1 3 6
M  V30 6 2 4 7
M  V30 7 1 5 8
M  V30 8 2 6 9
M  V30 9 1 7 10
M  V30 10 1 8 11
M  V30 11 1 10 12
M  V30 12 1 10 13
M  V30 13 1 11 14
M  V30 14 1 12 15
M  V30 15 1 13 16
M  V30 16 1 14 17
M  V30 17 1 15 18
M  V30 18 1 17 19
M  V30 19 1 18 20
M  V30 20 1 18 21
M  V30 21 2 19 22
M  V30 22 1 19 23
M  V30 23 1 22 24
M  V30 24 2 23 25
M  V30 25 1 24 26
M  V30 26 2 24 27
M  V30 27 1 26 28
M  V30 28 1 27 29
M  V30 29 1 28 30 CFG=3
M  V30 30 1 28 31
M  V30 31 1 28 32
M  V30 32 2 30 33
M  V30 33 1 30 34
M  V30 34 1 32 35
M  V30 35 1 7 9
M  V30 36 1 16 18
M  V30 37 1 25 27
M  V30 38 1 29 31
M  V30 END BOND
M  V30 BEGIN COLLECTION
M  V30 MDLV30/STEABS ATOMS=(1 28)
M  V30 END COLLECTION
M  V30 END CTAB
M  END
>  <Molecule ChEMBL ID>
CHEMBL178659

>  <Smiles>
CC[C@]1(C(=O)O)CCc2ccc(OCCCOc3ccc(C4CCC(C)(C)CC4)cc3Cl)cc2O1

>  <IC50_nM>
5700

>  <Assay Description>
In vitro binding affinity against human PPARgamma

$$$$
CHEMBL50984
Actelion Java MolfileCreator 2.0

  0  0  0  0  0  0              0 V3000
M  V30 BEGIN CTAB
M  V30 COUNTS 45 49 0 0 0
M  V30 BEGIN ATOM
M  V30 1 S 10.3923 -9.75 0.0 0
M  V30 2 O 9.6423 -8.4509 0.0 0
M  V30 3 O 8.8923 -9.75 0.0 0
M  V30 4 N 11.6913 -9.0 0.0 0
M  V30 5 C 10.3923 -11.25 0.0 0
M  V30 6 C 11.6913 -7.5 0.0 0
M  V30 7 C 9.0932 -12.0 0.0 0
M  V30 8 C 11.6913 -12.0 0.0 0
M  V30 9 C 12.9903 -6.75 0.0 0
M  V30 10 C 10.3923 -6.75 0.0 0
M  V30 11 C 9.0932 -13.5 0.0 0
M  V30 12 C 11.6913 -13.5 0.0 0
M  V30 13 C 12.9903 -5.25 0.0 0
M  V30 14 C 10.3923 -5.25 0.0 0
M  V30 15 C 10.3923 -14.25 0.0 0
M  V30 16 C 11.6913 -4.5 0.0 0
M  V30 17 C 10.3923 -15.75 0.0 0
M  V30 18 O 11.6913 -3.0 0.0 0
M  V30 19 C 10.3923 -2.25 0.0 0
M  V30 20 C 10.3923 -0.75 0.0 0
M  V30 21 C 9.0932 -3.0 0.0 0
M  V30 22 C 9.0932 0.0 0.0 0
M  V30 23 C 7.7942 -2.25 0.0 0
M  V30 24 C 7.7942 -0.75 0.0 0
M  V30 25 C 9.0932 1.5 0.0 0
M  V30 26 O 6.4951 0.0 0.0 0
M  V30 27 C 10.3923 2.25 0.0 0
M  V30 28 C 5.1961 -0.75 0.0 0
M  V30 29 C 10.3923 3.75 0.0 0
M  V30 30 C 3.8971 0.0 0.0 0
M  V30 31 C 2.598 -0.75 0.0 0
M  V30 32 O 1.299 0.0 0.0 0
M  V30 33 C 0.0 -0.75 0.0 0
M  V30 34 C -1.299 0.0 0.0 0
M  V30 35 C 0.0 -2.25 0.0 0
M  V30 36 C -2.598 -0.75 0.0 0
M  V30 37 C -1.299 -3.0 0.0 0
M  V30 38 C -2.598 -2.25 0.0 0
M  V30 39 C -3.8971 -3.0 0.0 0 CFG=1
M  V30 40 S -5.2674 -2.3898 0.0 0
M  V30 41 C -4.0539 -4.4917 0.0 0
M  V30 42 C -6.2711 -3.5046 0.0 0
M  V30 43 O -2.9391 -5.4954 0.0 0
M  V30 44 N -5.5211 -4.8036 0.0 0
M  V30 45 O -7.7629 -3.3478 0.0 0
M  V30 END ATOM
M  V30 BEGIN BOND
M  V30 1 2 1 2
M  V30 2 2 1 3
M  V30 3 1 1 4
M  V30 4 1 1 5
M  V30 5 1 4 6
M  V30 6 2 5 7
M  V30 7 1 5 8
M  V30 8 2 6 9
M  V30 9 1 6 10
M  V30 10 1 7 11
M  V30 11 2 8 12
M  V30 12 1 9 13
M  V30 13 2 10 14
M  V30 14 2 11 15
M  V30 15 2 13 16
M  V30 16 1 15 17
M  V30 17 1 16 18
M  V30 18 1 18 19
M  V30 19 2 19 20
M  V30 20 1 19 21
M  V30 21 1 20 22
M  V30 22 2 21 23
M  V30 23 2 22 24
M  V30 24 1 22 25
M  V30 25 1 24 26
M  V30 26 1 25 27
M  V30 27 1 26 28
M  V30 28 1 27 29
M  V30 29 1 28 30
M  V30 30 1 30 31
M  V30 31 1 31 32
M  V30 32 1 32 33
M  V30 33 2 33 34
M  V30 34 1 33 35
M  V30 35 1 34 36
M  V30 36 2 35 37
M  V30 37 2 36 38
M  V30 38 1 39 38 CFG=3
M  V30 39 1 39 40
M  V30 40 1 39 41
M  V30 41 1 40 42
M  V30 42 2 41 43
M  V30 43 1 41 44
M  V30 44 2 42 45
M  V30 45 1 12 15
M  V30 46 1 14 16
M  V30 47 1 23 24
M  V30 48 1 37 38
M  V30 49 1 42 44
M  V30 END BOND
M  V30 BEGIN COLLECTION
M  V30 MDLV30/STERAC1 ATOMS=(1 39)
M  V30 END COLLECTION
M  V30 END CTAB
M  END
>  <Molecule ChEMBL ID>
CHEMBL50984

>  <Smiles>
CCCc1cc(Oc2ccc(NS(=O)(=O)c3ccc(C)cc3)cc2)ccc1OCCCOc1ccc(C2SC(=O)NC2=O)cc1

>  <IC50_nM>
5700

>  <Assay Description>
In vitro binding affinity against human PPAR gamma (peroxisome proliferator-activated gamma receptor)

$$$$
CHEMBL4579845
Actelion Java MolfileCreator 2.0

  0  0  0  0  0  0              0 V3000
M  V30 BEGIN CTAB
M  V30 COUNTS 40 43 0 0 0
M  V30 BEGIN ATOM
M  V30 1 F 5.1961 5.4999 0.0 0
M  V30 2 C 5.1961 4.4999 0.0 0
M  V30 3 C 4.3301 3.9999 0.0 0
M  V30 4 C 6.0621 3.9999 0.0 0
M  V30 5 C 4.3301 2.9999 0.0 0
M  V30 6 C 6.0621 2.9999 0.0 0
M  V30 7 C 5.1961 2.4999 0.0 0
M  V30 8 C 5.1961 1.4999 0.0 0
M  V30 9 O 4.3301 0.9999 0.0 0
M  V30 10 C 4.3301 0.0 0.0 0
M  V30 11 C 3.4641 -0.5 0.0 0
M  V30 12 C 5.1961 -0.5 0.0 0
M  V30 13 C 3.4641 -1.5 0.0 0
M  V30 14 C 2.598 0.0 0.0 0
M  V30 15 C 5.1961 -1.5 0.0 0
M  V30 16 C 4.3301 -2.0 0.0 0
M  V30 17 C 1.732 -0.5 0.0 0
M  V30 18 O 4.3301 -3.0 0.0 0
M  V30 19 C 0.866 0.0 0.0 0
M  V30 20 C 1.732 -1.5 0.0 0
M  V30 21 C 3.4641 -3.5 0.0 0
M  V30 22 O 0.0 -0.4999 0.0 0
M  V30 23 O 0.866 1.0 0.0 0
M  V30 24 C 0.866 -2.0 0.0 0
M  V30 25 C 3.4641 -4.5 0.0 0
M  V30 26 C 2.598 -4.9999 0.0 0
M  V30 27 C 4.3301 -5.0 0.0 0
M  V30 28 C 2.598 -5.9999 0.0 0
M  V30 29 C 4.3301 -6.0 0.0 0
M  V30 30 C 1.732 -6.4999 0.0 0
M  V30 31 C 3.4641 -6.5 0.0 0
M  V30 32 O 0.866 -5.9999 0.0 0
M  V30 33 C 1.732 -7.4999 0.0 0
M  V30 34 N 3.4641 -7.5 0.0 0
M  V30 35 C 0.0 -6.4999 0.0 0
M  V30 36 C 2.598 -7.9999 0.0 0
M  V30 37 C 2.598 -9.0 0.0 0
M  V30 38 F 3.598 -9.0 0.0 0
M  V30 39 F 2.598 -10.0 0.0 0
M  V30 40 F 1.598 -9.0 0.0 0
M  V30 END ATOM
M  V30 BEGIN BOND
M  V30 1 1 1 2
M  V30 2 2 2 3
M  V30 3 1 2 4
M  V30 4 1 3 5
M  V30 5 2 4 6
M  V30 6 2 5 7
M  V30 7 1 7 8
M  V30 8 1 8 9
M  V30 9 1 9 10
M  V30 10 2 10 11
M  V30 11 1 10 12
M  V30 12 1 11 13
M  V30 13 1 11 14
M  V30 14 2 12 15
M  V30 15 2 13 16
M  V30 16 2 14 17
M  V30 17 1 16 18
M  V30 18 1 17 19
M  V30 19 1 17 20
M  V30 20 1 18 21
M  V30 21 2 19 22
M  V30 22 1 19 23
M  V30 23 1 20 24
M  V30 24 1 21 25
M  V30 25 2 25 26
M  V30 26 1 25 27
M  V30 27 1 26 28
M  V30 28 2 27 29
M  V30 29 2 28 30
M  V30 30 1 28 31
M  V30 31 1 30 32
M  V30 32 1 30 33
M  V30 33 2 31 34
M  V30 34 1 32 35
M  V30 35 2 33 36
M  V30 36 1 36 37
M  V30 37 1 37 38
M  V30 38 1 37 39
M  V30 39 1 37 40
M  V30 40 1 6 7
M  V30 41 1 15 16
M  V30 42 1 29 31
M  V30 43 1 34 36
M  V30 END BOND
M  V30 END CTAB
M  END
>  <Molecule ChEMBL ID>
CHEMBL4579845

>  <Smiles>
CC/C(=C\c1cc(OCc2ccc3nc(C(F)(F)F)cc(OC)c3c2)ccc1OCc1ccc(F)cc1)C(=O)O

>  <IC50_nM>
5700

>  <Assay Description>
Antagonist actvity in pFA-GAL4-DBD fused PPARgamma LBD (unknown origin) transfected in HEK293T cells assessed as inhibition of rosiglitazone-induced PPARgamma transactivation incubated for 24 hrs by luciferase reporter gene assay

$$$$
CHEMBL5179111
Actelion Java MolfileCreator 2.0

  0  0  0  0  0  0              0 V3000
M  V30 BEGIN CTAB
M  V30 COUNTS 22 24 0 0 0
M  V30 BEGIN ATOM
M  V30 1 O 1.732 -1.5 0.0 0
M  V30 2 C 1.732 -0.5 0.0 0
M  V30 3 N 2.598 0.0 0.0 0
M  V30 4 C 0.866 0.0 0.0 0
M  V30 5 C 3.4641 -0.5 0.0 0
M  V30 6 C 0.0 -0.5 0.0 0
M  V30 7 C 3.4641 -1.4999 0.0 0
M  V30 8 C 4.3301 0.0 0.0 0
M  V30 9 C 4.3301 -1.9999 0.0 0
M  V30 10 C 5.1961 -0.4999 0.0 0
M  V30 11 N 4.538 -2.9781 0.0 0
M  V30 12 C 5.1961 -1.4999 0.0 0
M  V30 13 C 5.5325 -3.0826 0.0 0
M  V30 14 O 5.9392 -2.1691 0.0 0
M  V30 15 C 6.0325 -3.9487 0.0 0
M  V30 16 C 5.5325 -4.8147 0.0 0
M  V30 17 C 7.0325 -3.9487 0.0 0
M  V30 18 C 6.0325 -5.6807 0.0 0
M  V30 19 C 7.5325 -4.8147 0.0 0
M  V30 20 C 7.0325 -5.6807 0.0 0
M  V30 21 C 7.5325 -6.5467 0.0 0
M  V30 22 C 8.5325 -6.5467 0.0 0
M  V30 END ATOM
M  V30 BEGIN BOND
M  V30 1 2 1 2
M  V30 2 1 2 3
M  V30 3 1 2 4
M  V30 4 1 3 5
M  V30 5 2 4 6
M  V30 6 2 5 7
M  V30 7 1 5 8
M  V30 8 1 7 9
M  V30 9 2 8 10
M  V30 10 1 9 11
M  V30 11 2 9 12
M  V30 12 2 11 13
M  V30 13 1 12 14
M  V30 14 1 13 15
M  V30 15 2 15 16
M  V30 16 1 15 17
M  V30 17 1 16 18
M  V30 18 2 17 19
M  V30 19 2 18 20
M  V30 20 1 20 21
M  V30 21 1 21 22
M  V30 22 1 10 12
M  V30 23 1 13 14
M  V30 24 1 19 20
M  V30 END BOND
M  V30 END CTAB
M  END
>  <Molecule ChEMBL ID>
CHEMBL5179111

>  <Smiles>
C=CC(=O)Nc1ccc2oc(-c3ccc(CC)cc3)nc2c1

>  <IC50_nM>
5750

>  <Assay Description>
Inverse agonist activity at PPARgamma in human RT112/84-FABP4 cells assessed as reduction in PPARgamma transactivation measured by Nanoluciferase reporter gene assay

$$$$
CHEMBL234588
Actelion Java MolfileCreator 2.0

  0  0  0  0  0  0              0 V3000
M  V30 BEGIN CTAB
M  V30 COUNTS 33 36 0 0 0
M  V30 BEGIN ATOM
M  V30 1 S 4.1807 0.3364 0.0 0
M  V30 2 C 3.6807 1.2024 0.0 0
M  V30 3 C 3.5116 -0.4067 0.0 0
M  V30 4 C 2.7026 0.9945 0.0 0
M  V30 5 C 3.9897 2.1534 0.0 0
M  V30 6 C 2.598 0.0 0.0 0
M  V30 7 C 2.0334 1.7376 0.0 0
M  V30 8 C 3.3206 2.8966 0.0 0
M  V30 9 C 1.732 -0.5 0.0 0
M  V30 10 C 2.3424 2.6887 0.0 0
M  V30 11 O 3.6296 3.8476 0.0 0
M  V30 12 C 0.866 0.0 0.0 0
M  V30 13 C 4.6078 4.0556 0.0 0
M  V30 14 O 0.866 1.0 0.0 0
M  V30 15 O 0.0 -0.5 0.0 0
M  V30 16 C 4.9168 5.0066 0.0 0
M  V30 17 C 5.8949 5.2145 0.0 0
M  V30 18 C 4.2476 5.7498 0.0 0
M  V30 19 C 6.2039 6.1656 0.0 0
M  V30 20 C 4.5567 6.7008 0.0 0
M  V30 21 C 5.5348 6.9087 0.0 0
M  V30 22 C 7.1821 6.3735 0.0 0
M  V30 23 O 7.8512 5.6303 0.0 0
M  V30 24 C 8.8294 5.8383 0.0 0
M  V30 25 C 9.4985 5.0951 0.0 0
M  V30 26 C 9.1384 6.7893 0.0 0
M  V30 27 C 10.4766 5.303 0.0 0
M  V30 28 C 10.1165 6.9972 0.0 0
M  V30 29 C 10.7857 6.2541 0.0 0
M  V30 30 C 11.7638 6.462 0.0 0
M  V30 31 F 11.5559 7.4401 0.0 0
M  V30 32 F 12.742 6.6699 0.0 0
M  V30 33 F 11.9717 5.4838 0.0 0
M  V30 END ATOM
M  V30 BEGIN BOND
M  V30 1 1 1 2
M  V30 2 1 1 3
M  V30 3 2 2 4
M  V30 4 1 2 5
M  V30 5 2 3 6
M  V30 6 1 4 7
M  V30 7 2 5 8
M  V30 8 1 6 9
M  V30 9 2 7 10
M  V30 10 1 8 11
M  V30 11 1 9 12
M  V30 12 1 11 13
M  V30 13 2 12 14
M  V30 14 1 12 15
M  V30 15 1 13 16
M  V30 16 2 16 17
M  V30 17 1 16 18
M  V30 18 1 17 19
M  V30 19 2 18 20
M  V30 20 2 19 21
M  V30 21 1 19 22
M  V30 22 1 22 23
M  V30 23 1 23 24
M  V30 24 2 24 25
M  V30 25 1 24 26
M  V30 26 1 25 27
M  V30 27 2 26 28
M  V30 28 2 27 29
M  V30 29 1 29 30
M  V30 30 1 30 31
M  V30 31 1 30 32
M  V30 32 1 30 33
M  V30 33 1 4 6
M  V30 34 1 8 10
M  V30 35 1 20 21
M  V30 36 1 28 29
M  V30 END BOND
M  V30 END CTAB
M  END
>  <Molecule ChEMBL ID>
CHEMBL234588

>  <Smiles>
O=C(O)Cc1csc2cc(OCc3cccc(COc4ccc(C(F)(F)F)cc4)c3)ccc12

>  <IC50_nM>
5790

>  <Assay Description>
Displacement of [3H]5-(4-(3-(5-methyl-2-phenyloxazol-4-yl)propanoyl)benzyl)thiazolidine-2,4-dione from human PPARgamma after 2 hrs by SPA

$$$$
CHEMBL234588
Actelion Java MolfileCreator 2.0

  0  0  0  0  0  0              0 V3000
M  V30 BEGIN CTAB
M  V30 COUNTS 33 36 0 0 0
M  V30 BEGIN ATOM
M  V30 1 S 4.1807 0.3364 0.0 0
M  V30 2 C 3.6807 1.2024 0.0 0
M  V30 3 C 3.5116 -0.4067 0.0 0
M  V30 4 C 2.7026 0.9945 0.0 0
M  V30 5 C 3.9897 2.1534 0.0 0
M  V30 6 C 2.598 0.0 0.0 0
M  V30 7 C 2.0334 1.7376 0.0 0
M  V30 8 C 3.3206 2.8966 0.0 0
M  V30 9 C 1.732 -0.5 0.0 0
M  V30 10 C 2.3424 2.6887 0.0 0
M  V30 11 O 3.6296 3.8476 0.0 0
M  V30 12 C 0.866 0.0 0.0 0
M  V30 13 C 4.6078 4.0556 0.0 0
M  V30 14 O 0.866 1.0 0.0 0
M  V30 15 O 0.0 -0.5 0.0 0
M  V30 16 C 4.9168 5.0066 0.0 0
M  V30 17 C 5.8949 5.2145 0.0 0
M  V30 18 C 4.2476 5.7498 0.0 0
M  V30 19 C 6.2039 6.1656 0.0 0
M  V30 20 C 4.5567 6.7008 0.0 0
M  V30 21 C 5.5348 6.9087 0.0 0
M  V30 22 C 7.1821 6.3735 0.0 0
M  V30 23 O 7.8512 5.6303 0.0 0
M  V30 24 C 8.8294 5.8383 0.0 0
M  V30 25 C 9.4985 5.0951 0.0 0
M  V30 26 C 9.1384 6.7893 0.0 0
M  V30 27 C 10.4766 5.303 0.0 0
M  V30 28 C 10.1165 6.9972 0.0 0
M  V30 29 C 10.7857 6.2541 0.0 0
M  V30 30 C 11.7638 6.462 0.0 0
M  V30 31 F 11.5559 7.4401 0.0 0
M  V30 32 F 12.742 6.6699 0.0 0
M  V30 33 F 11.9717 5.4838 0.0 0
M  V30 END ATOM
M  V30 BEGIN BOND
M  V30 1 1 1 2
M  V30 2 1 1 3
M  V30 3 2 2 4
M  V30 4 1 2 5
M  V30 5 2 3 6
M  V30 6 1 4 7
M  V30 7 2 5 8
M  V30 8 1 6 9
M  V30 9 2 7 10
M  V30 10 1 8 11
M  V30 11 1 9 12
M  V30 12 1 11 13
M  V30 13 2 12 14
M  V30 14 1 12 15
M  V30 15 1 13 16
M  V30 16 2 16 17
M  V30 17 1 16 18
M  V30 18 1 17 19
M  V30 19 2 18 20
M  V30 20 2 19 21
M  V30 21 1 19 22
M  V30 22 1 22 23
M  V30 23 1 23 24
M  V30 24 2 24 25
M  V30 25 1 24 26
M  V30 26 1 25 27
M  V30 27 2 26 28
M  V30 28 2 27 29
M  V30 29 1 29 30
M  V30 30 1 30 31
M  V30 31 1 30 32
M  V30 32 1 30 33
M  V30 33 1 4 6
M  V30 34 1 8 10
M  V30 35 1 20 21
M  V30 36 1 28 29
M  V30 END BOND
M  V30 END CTAB
M  END
>  <Molecule ChEMBL ID>
CHEMBL234588

>  <Smiles>
O=C(O)Cc1csc2cc(OCc3cccc(COc4ccc(C(F)(F)F)cc4)c3)ccc12

>  <IC50_nM>
5794.29

>  <Assay Description>
Agonist activity at PPARgamma

$$$$
CHEMBL179452
Actelion Java MolfileCreator 2.0

  0  0  0  0  0  0              0 V3000
M  V30 BEGIN CTAB
M  V30 COUNTS 32 35 0 0 0
M  V30 BEGIN ATOM
M  V30 1 Cl 6.0621 1.0 0.0 0
M  V30 2 C 6.0621 0.0 0.0 0
M  V30 3 C 5.1961 -0.5 0.0 0
M  V30 4 C 6.9282 -0.4999 0.0 0
M  V30 5 O 4.3301 0.0 0.0 0
M  V30 6 C 5.1961 -1.4999 0.0 0
M  V30 7 C 6.9282 -1.4999 0.0 0
M  V30 8 C 3.4641 -0.5 0.0 0
M  V30 9 C 6.0621 -1.9999 0.0 0
M  V30 10 C 7.7942 -1.9999 0.0 0
M  V30 11 C 2.598 0.0 0.0 0
M  V30 12 C 7.7942 -2.9999 0.0 0
M  V30 13 C 8.6602 -1.4999 0.0 0
M  V30 14 C 1.732 -0.5 0.0 0
M  V30 15 C 8.6602 -3.4999 0.0 0
M  V30 16 C 9.5262 -1.9999 0.0 0
M  V30 17 O 0.866 0.0 0.0 0
M  V30 18 C 9.5262 -2.9999 0.0 0
M  V30 19 C 0.0 -0.5 0.0 0
M  V30 20 C -0.866 0.0 0.0 0
M  V30 21 C 0.0 -1.4999 0.0 0
M  V30 22 C -1.732 -0.4999 0.0 0
M  V30 23 C -0.866 -1.9999 0.0 0
M  V30 24 O -2.598 0.0 0.0 0
M  V30 25 C -1.732 -1.4999 0.0 0
M  V30 26 C -3.4641 -0.4999 0.0 0 CFG=1
M  V30 27 C -2.598 -1.9999 0.0 0
M  V30 28 C -4.3301 0.0 0.0 0
M  V30 29 C -3.4641 -1.4999 0.0 0
M  V30 30 C -4.3301 -0.9999 0.0 0
M  V30 31 O -5.1961 -0.4999 0.0 0
M  V30 32 O -4.3301 1.0 0.0 0
M  V30 END ATOM
M  V30 BEGIN BOND
M  V30 1 1 1 2
M  V30 2 2 2 3
M  V30 3 1 2 4
M  V30 4 1 3 5
M  V30 5 1 3 6
M  V30 6 2 4 7
M  V30 7 1 5 8
M  V30 8 2 6 9
M  V30 9 1 7 10
M  V30 10 1 8 11
M  V30 11 1 10 12
M  V30 12 1 10 13
M  V30 13 1 11 14
M  V30 14 1 12 15
M  V30 15 1 13 16
M  V30 16 1 14 17
M  V30 17 1 15 18
M  V30 18 1 17 19
M  V30 19 2 19 20
M  V30 20 1 19 21
M  V30 21 1 20 22
M  V30 22 2 21 23
M  V30 23 1 22 24
M  V30 24 2 22 25
M  V30 25 1 24 26
M  V30 26 1 25 27
M  V30 27 1 26 28
M  V30 28 1 26 29
M  V30 29 1 26 30 CFG=1
M  V30 30 2 28 31
M  V30 31 1 28 32
M  V30 32 1 7 9
M  V30 33 1 16 18
M  V30 34 1 23 25
M  V30 35 1 27 29
M  V30 END BOND
M  V30 BEGIN COLLECTION
M  V30 MDLV30/STEABS ATOMS=(1 26)
M  V30 END COLLECTION
M  V30 END CTAB
M  END
>  <Molecule ChEMBL ID>
CHEMBL179452

>  <Smiles>
C[C@]1(C(=O)O)CCc2ccc(OCCCOc3ccc(C4CCCCC4)cc3Cl)cc2O1

>  <IC50_nM>
5800

>  <Assay Description>
In vitro binding affinity against human PPARgamma

$$$$
CHEMBL3398429
Actelion Java MolfileCreator 2.0

  0  0  0  0  0  0              0 V3000
M  V30 BEGIN CTAB
M  V30 COUNTS 38 42 0 0 0
M  V30 BEGIN ATOM
M  V30 1 O 9.2271 -3.0408 0.0 0
M  V30 2 C 8.6393 -2.2318 0.0 0
M  V30 3 O 9.0461 -1.3183 0.0 0
M  V30 4 N 7.6448 -2.3364 0.0 0
M  V30 5 C 8.4583 -0.5093 0.0 0
M  V30 6 C 6.9757 -1.5932 0.0 0
M  V30 7 C 7.1448 -3.2024 0.0 0
M  V30 8 C 8.865 0.4042 0.0 0
M  V30 9 C 7.4638 -0.6138 0.0 0
M  V30 10 C 6.0621 -1.9999 0.0 0 CFG=1
M  V30 11 C 6.1667 -2.9945 0.0 0 CFG=1
M  V30 12 C 8.2772 1.2132 0.0 0
M  V30 13 C 6.876 0.1951 0.0 0
M  V30 14 C 5.1961 -1.4999 0.0 0
M  V30 15 C 5.4235 -3.6636 0.0 0
M  V30 16 C 7.2827 1.1087 0.0 0
M  V30 17 C 5.1961 -0.5 0.0 0
M  V30 18 C 4.3301 -1.9999 0.0 0
M  V30 19 O 4.4725 -3.3546 0.0 0
M  V30 20 O 5.6314 -4.6418 0.0 0
M  V30 21 C 4.3301 0.0 0.0 0
M  V30 22 C 3.4641 -1.5 0.0 0
M  V30 23 C 3.4641 -0.5 0.0 0
M  V30 24 O 2.598 0.0 0.0 0
M  V30 25 C 1.732 -0.5 0.0 0
M  V30 26 C 0.866 0.0 0.0 0
M  V30 27 C 0.0 -0.5 0.0 0
M  V30 28 N -0.9135 -0.0932 0.0 0
M  V30 29 C -0.1045 -1.4945 0.0 0
M  V30 30 C -1.5826 -0.8364 0.0 0
M  V30 31 O -1.0826 -1.7024 0.0 0
M  V30 32 C 0.6386 -2.1636 0.0 0
M  V30 33 C -2.5771 -0.7318 0.0 0
M  V30 34 C -2.9839 0.1816 0.0 0
M  V30 35 C -3.1649 -1.5408 0.0 0
M  V30 36 C -3.9784 0.2861 0.0 0
M  V30 37 C -4.1595 -1.4363 0.0 0
M  V30 38 C -4.5662 -0.5228 0.0 0
M  V30 END ATOM
M  V30 BEGIN BOND
M  V30 1 2 1 2
M  V30 2 1 2 3
M  V30 3 1 2 4
M  V30 4 1 3 5
M  V30 5 1 4 6
M  V30 6 1 4 7
M  V30 7 2 5 8
M  V30 8 1 5 9
M  V30 9 1 6 10
M  V30 10 1 7 11
M  V30 11 1 8 12
M  V30 12 2 9 13
M  V30 13 1 10 14 CFG=1
M  V30 14 1 11 15 CFG=3
M  V30 15 2 12 16
M  V30 16 2 14 17
M  V30 17 1 14 18
M  V30 18 2 15 19
M  V30 19 1 15 20
M  V30 20 1 17 21
M  V30 21 2 18 22
M  V30 22 2 21 23
M  V30 23 1 23 24
M  V30 24 1 24 25
M  V30 25 1 25 26
M  V30 26 1 26 27
M  V30 27 1 27 28
M  V30 28 2 27 29
M  V30 29 2 28 30
M  V30 30 1 29 31
M  V30 31 1 29 32
M  V30 32 1 30 33
M  V30 33 2 33 34
M  V30 34 1 33 35
M  V30 35 1 34 36
M  V30 36 2 35 37
M  V30 37 2 36 38
M  V30 38 1 10 11
M  V30 39 1 13 16
M  V30 40 1 22 23
M  V30 41 1 30 31
M  V30 42 1 37 38
M  V30 END BOND
M  V30 BEGIN COLLECTION
M  V30 MDLV30/STEABS ATOMS=(2 10 11)
M  V30 END COLLECTION
M  V30 END CTAB
M  END
>  <Molecule ChEMBL ID>
CHEMBL3398429

>  <Smiles>
Cc1oc(-c2ccccc2)nc1CCOc1ccc([C@H]2CN(C(=O)Oc3ccccc3)C[C@@H]2C(=O)O)cc1

>  <IC50_nM>
5860

>  <Assay Description>
Binding affinity to PPARgamma (unknown origin) using fluorescein-tagged dual PPARalpha/gamma activator by homogeneous fluorescence polarization binding assay

$$$$
CHEMBL360240
Actelion Java MolfileCreator 2.0

  0  0  0  0  0  0              0 V3000
M  V30 BEGIN CTAB
M  V30 COUNTS 32 34 0 0 0
M  V30 BEGIN ATOM
M  V30 1 Cl 6.0621 1.0 0.0 0
M  V30 2 C 6.0621 0.0 0.0 0
M  V30 3 C 5.1961 -0.5 0.0 0
M  V30 4 C 6.9282 -0.4999 0.0 0
M  V30 5 O 4.3301 0.0 0.0 0
M  V30 6 C 5.1961 -1.4999 0.0 0
M  V30 7 C 6.9282 -1.4999 0.0 0
M  V30 8 C 3.4641 -0.5 0.0 0
M  V30 9 C 6.0621 -1.9999 0.0 0
M  V30 10 O 7.7942 -1.9999 0.0 0
M  V30 11 C 2.598 0.0 0.0 0
M  V30 12 C 7.7942 -2.9999 0.0 0
M  V30 13 C 1.732 -0.5 0.0 0
M  V30 14 C 8.6602 -3.4999 0.0 0
M  V30 15 O 0.866 0.0 0.0 0
M  V30 16 F 9.1602 -2.6339 0.0 0
M  V30 17 F 9.5262 -3.9999 0.0 0
M  V30 18 F 8.1602 -4.366 0.0 0
M  V30 19 C 0.0 -0.5 0.0 0
M  V30 20 C -0.866 0.0 0.0 0
M  V30 21 C 0.0 -1.4999 0.0 0
M  V30 22 C -1.732 -0.4999 0.0 0
M  V30 23 C -0.866 -1.9999 0.0 0
M  V30 24 O -2.598 0.0 0.0 0
M  V30 25 C -1.732 -1.4999 0.0 0
M  V30 26 C -3.4641 -0.4999 0.0 0 CFG=1
M  V30 27 C -2.598 -1.9999 0.0 0
M  V30 28 C -4.3301 0.0 0.0 0
M  V30 29 C -3.4641 -1.4999 0.0 0
M  V30 30 C -4.3301 -0.9999 0.0 0
M  V30 31 O -5.1961 -0.4999 0.0 0
M  V30 32 O -4.3301 1.0 0.0 0
M  V30 END ATOM
M  V30 BEGIN BOND
M  V30 1 1 1 2
M  V30 2 2 2 3
M  V30 3 1 2 4
M  V30 4 1 3 5
M  V30 5 1 3 6
M  V30 6 2 4 7
M  V30 7 1 5 8
M  V30 8 2 6 9
M  V30 9 1 7 10
M  V30 10 1 8 11
M  V30 11 1 10 12
M  V30 12 1 11 13
M  V30 13 1 12 14
M  V30 14 1 13 15
M  V30 15 1 14 16
M  V30 16 1 14 17
M  V30 17 1 14 18
M  V30 18 1 15 19
M  V30 19 2 19 20
M  V30 20 1 19 21
M  V30 21 1 20 22
M  V30 22 2 21 23
M  V30 23 1 22 24
M  V30 24 2 22 25
M  V30 25 1 24 26
M  V30 26 1 25 27
M  V30 27 1 26 28
M  V30 28 1 26 29
M  V30 29 1 26 30 CFG=1
M  V30 30 2 28 31
M  V30 31 1 28 32
M  V30 32 1 7 9
M  V30 33 1 23 25
M  V30 34 1 27 29
M  V30 END BOND
M  V30 BEGIN COLLECTION
M  V30 MDLV30/STEABS ATOMS=(1 26)
M  V30 END COLLECTION
M  V30 END CTAB
M  END
>  <Molecule ChEMBL ID>
CHEMBL360240

>  <Smiles>
C[C@]1(C(=O)O)CCc2ccc(OCCCOc3ccc(OCC(F)(F)F)cc3Cl)cc2O1

>  <IC50_nM>
6000

>  <Assay Description>
In vitro binding affinity against human PPARgamma

$$$$
CHEMBL206202
Actelion Java MolfileCreator 2.0

  0  0  0  0  0  0              0 V3000
M  V30 BEGIN CTAB
M  V30 COUNTS 31 32 0 0 0
M  V30 BEGIN ATOM
M  V30 1 Cl 6.0621 1.0 0.0 0
M  V30 2 C 6.0621 0.0 0.0 0
M  V30 3 C 5.1961 -0.5 0.0 0
M  V30 4 C 6.9282 -0.4999 0.0 0
M  V30 5 O 4.3301 0.0 0.0 0
M  V30 6 C 5.1961 -1.4999 0.0 0
M  V30 7 C 6.9282 -1.4999 0.0 0
M  V30 8 C 3.4641 -0.5 0.0 0
M  V30 9 C 6.0621 -1.9999 0.0 0
M  V30 10 C 7.7942 -1.9999 0.0 0
M  V30 11 C 2.598 0.0 0.0 0
M  V30 12 C 8.6602 -1.4999 0.0 0
M  V30 13 C 1.732 -0.5 0.0 0
M  V30 14 F 8.1602 -0.6339 0.0 0
M  V30 15 F 9.5262 -0.9999 0.0 0
M  V30 16 F 9.1602 -2.366 0.0 0
M  V30 17 O 0.866 0.0 0.0 0
M  V30 18 C 0.0 -0.5 0.0 0
M  V30 19 C -0.866 0.0 0.0 0
M  V30 20 C 0.0 -1.4999 0.0 0
M  V30 21 C -1.732 -0.4999 0.0 0
M  V30 22 C -0.866 -1.9999 0.0 0
M  V30 23 C -1.732 -1.4999 0.0 0
M  V30 24 C -2.598 -1.9999 0.0 0
M  V30 25 C -2.598 -2.9999 0.0 0 CFG=1
M  V30 26 C -1.732 -3.4999 0.0 0
M  V30 27 C -3.4641 -3.4999 0.0 0
M  V30 28 C -1.732 -2.4999 0.0 0
M  V30 29 O -0.866 -2.9999 0.0 0
M  V30 30 O -1.732 -4.4999 0.0 0
M  V30 31 C -3.4641 -4.4999 0.0 0
M  V30 END ATOM
M  V30 BEGIN BOND
M  V30 1 1 1 2
M  V30 2 2 2 3
M  V30 3 1 2 4
M  V30 4 1 3 5
M  V30 5 1 3 6
M  V30 6 2 4 7
M  V30 7 1 5 8
M  V30 8 2 6 9
M  V30 9 1 7 10
M  V30 10 1 8 11
M  V30 11 1 10 12
M  V30 12 1 11 13
M  V30 13 1 12 14
M  V30 14 1 12 15
M  V30 15 1 12 16
M  V30 16 1 13 17
M  V30 17 1 17 18
M  V30 18 2 18 19
M  V30 19 1 18 20
M  V30 20 1 19 21
M  V30 21 2 20 22
M  V30 22 2 21 23
M  V30 23 1 23 24
M  V30 24 1 24 25
M  V30 25 1 25 26
M  V30 26 1 25 27
M  V30 27 1 25 28 CFG=3
M  V30 28 2 26 29
M  V30 29 1 26 30
M  V30 30 1 27 31
M  V30 31 1 7 9
M  V30 32 1 22 23
M  V30 END BOND
M  V30 BEGIN COLLECTION
M  V30 MDLV30/STEABS ATOMS=(1 25)
M  V30 END COLLECTION
M  V30 END CTAB
M  END
>  <Molecule ChEMBL ID>
CHEMBL206202

>  <Smiles>
CC[C@@](C)(Cc1ccc(OCCCOc2ccc(CC(F)(F)F)cc2Cl)cc1)C(=O)O

>  <IC50_nM>
6000

>  <Assay Description>
Binding affinity to human PPAR gamma

$$$$
CHEMBL8739
Actelion Java MolfileCreator 2.0

  0  0  0  0  0  0              0 V3000
M  V30 BEGIN CTAB
M  V30 COUNTS 20 19 0 0 0
M  V30 BEGIN ATOM
M  V30 1 O 15.5884 -0.5 0.0 0
M  V30 2 C 14.7224 0.0 0.0 0
M  V30 3 O 14.7224 1.0 0.0 0
M  V30 4 C 13.8564 -0.5 0.0 0
M  V30 5 C 12.9903 0.0 0.0 0
M  V30 6 C 12.1243 -0.5 0.0 0
M  V30 7 C 11.2583 0.0 0.0 0
M  V30 8 C 10.3923 -0.5 0.0 0
M  V30 9 C 9.5262 0.0 0.0 0
M  V30 10 C 8.6602 -0.5 0.0 0
M  V30 11 C 7.7942 0.0 0.0 0
M  V30 12 C 6.9282 -0.5 0.0 0
M  V30 13 C 6.9282 -1.4999 0.0 0
M  V30 14 C 6.0621 -2.0 0.0 0
M  V30 15 C 6.0621 -3.0 0.0 0
M  V30 16 C 6.9282 -3.4999 0.0 0
M  V30 17 C 6.9282 -4.5 0.0 0
M  V30 18 C 7.7942 -4.9999 0.0 0
M  V30 19 C 8.6602 -4.4999 0.0 0
M  V30 20 C 9.5262 -4.9999 0.0 0
M  V30 END ATOM
M  V30 BEGIN BOND
M  V30 1 2 1 2
M  V30 2 1 2 3
M  V30 3 1 2 4
M  V30 4 1 4 5
M  V30 5 1 5 6
M  V30 6 1 6 7
M  V30 7 1 7 8
M  V30 8 1 8 9
M  V30 9 1 9 10
M  V30 10 1 10 11
M  V30 11 2 11 12
M  V30 12 1 12 13
M  V30 13 1 13 14
M  V30 14 2 14 15
M  V30 15 1 15 16
M  V30 16 1 16 17
M  V30 17 2 17 18
M  V30 18 1 18 19
M  V30 19 1 19 20
M  V30 END BOND
M  V30 END CTAB
M  END
>  <Molecule ChEMBL ID>
CHEMBL8739

>  <Smiles>
CC/C=C\C/C=C\C/C=C\CCCCCCCC(=O)O

>  <IC50_nM>
6000

>  <Assay Description>
Displacement of [3H]BRL49653 from Homo sapiens (human) PPARgamma receptor by scintillation proximity assay

$$$$
CHEMBL2037008
Actelion Java MolfileCreator 2.0

  0  0  0  0  0  0              0 V3000
M  V30 BEGIN CTAB
M  V30 COUNTS 33 35 0 0 0
M  V30 BEGIN ATOM
M  V30 1 O 7.4302 -3.9239 0.0 0
M  V30 2 C 6.8201 -2.5536 0.0 0
M  V30 3 N 7.5701 -1.2546 0.0 0
M  V30 4 N 5.3529 -2.2417 0.0 0
M  V30 5 N 6.5664 -0.1398 0.0 0
M  V30 6 C 9.0619 -1.0978 0.0 0 CFG=1
M  V30 7 C 5.1961 -0.75 0.0 0
M  V30 8 C 4.2382 -3.2454 0.0 0
M  V30 9 C 9.9436 -2.3113 0.0 0
M  V30 10 C 9.672 0.2724 0.0 0
M  V30 11 C 3.8971 0.0 0.0 0
M  V30 12 C 2.8116 -2.7819 0.0 0
M  V30 13 C 9.3335 -3.6816 0.0 0
M  V30 14 C 11.4354 -2.1545 0.0 0
M  V30 15 C 2.598 -0.75 0.0 0
M  V30 16 C 1.6969 -3.7856 0.0 0
M  V30 17 C 10.2152 -4.8951 0.0 0
M  V30 18 C 12.3171 -3.368 0.0 0
M  V30 19 C 1.299 0.0 0.0 0
M  V30 20 C 11.7069 -4.7384 0.0 0
M  V30 21 C 0.0 -0.75 0.0 0
M  V30 22 C -1.299 0.0 0.0 0
M  V30 23 C 0.0 -2.25 0.0 0
M  V30 24 C -2.598 -0.75 0.0 0
M  V30 25 C -1.299 -3.0 0.0 0
M  V30 26 C -2.598 -2.25 0.0 0
M  V30 27 O -3.8971 -3.0 0.0 0
M  V30 28 C -3.8971 -4.5 0.0 0
M  V30 29 C -5.1961 -5.25 0.0 0
M  V30 30 C -3.1471 -5.799 0.0 0
M  V30 31 C -2.3971 -4.4999 0.0 0
M  V30 32 O -6.4951 -4.5 0.0 0
M  V30 33 O -5.1961 -6.75 0.0 0
M  V30 END ATOM
M  V30 BEGIN BOND
M  V30 1 2 1 2
M  V30 2 1 2 3
M  V30 3 1 2 4
M  V30 4 1 3 5
M  V30 5 1 3 6
M  V30 6 1 4 7
M  V30 7 1 4 8
M  V30 8 1 6 9
M  V30 9 1 6 10 CFG=3
M  V30 10 1 7 11
M  V30 11 1 8 12
M  V30 12 2 9 13
M  V30 13 1 9 14
M  V30 14 1 11 15
M  V30 15 1 12 16
M  V30 16 1 13 17
M  V30 17 2 14 18
M  V30 18 1 15 19
M  V30 19 2 17 20
M  V30 20 1 19 21
M  V30 21 2 21 22
M  V30 22 1 21 23
M  V30 23 1 22 24
M  V30 24 2 23 25
M  V30 25 2 24 26
M  V30 26 1 26 27
M  V30 27 1 27 28
M  V30 28 1 28 29
M  V30 29 1 28 30
M  V30 30 1 28 31
M  V30 31 2 29 32
M  V30 32 1 29 33
M  V30 33 2 5 7
M  V30 34 1 18 20
M  V30 35 1 25 26
M  V30 END BOND
M  V30 BEGIN COLLECTION
M  V30 MDLV30/STEABS ATOMS=(1 6)
M  V30 END COLLECTION
M  V30 END CTAB
M  END
>  <Molecule ChEMBL ID>
CHEMBL2037008

>  <Smiles>
CCCn1c(CCCc2ccc(OC(C)(C)C(=O)O)cc2)nn([C@H](C)c2ccccc2)c1=O

>  <IC50_nM>
6095.37

>  <Assay Description>
Agonist activity at PPARgamma

$$$$
CHEMBL148774
Actelion Java MolfileCreator 2.0

  0  0  0  0  0  0              0 V3000
M  V30 BEGIN CTAB
M  V30 COUNTS 33 35 0 0 0
M  V30 BEGIN ATOM
M  V30 1 O 7.4302 -3.9239 0.0 0
M  V30 2 C 6.8201 -2.5536 0.0 0
M  V30 3 N 7.5701 -1.2546 0.0 0
M  V30 4 N 5.3529 -2.2417 0.0 0
M  V30 5 N 6.5664 -0.1398 0.0 0
M  V30 6 C 9.0619 -1.0978 0.0 0
M  V30 7 C 5.1961 -0.75 0.0 0
M  V30 8 C 4.2382 -3.2454 0.0 0
M  V30 9 C 9.672 0.2724 0.0 0
M  V30 10 C 3.8971 0.0 0.0 0
M  V30 11 C 2.8116 -2.7819 0.0 0
M  V30 12 C 11.1638 0.4292 0.0 0
M  V30 13 C 8.7903 1.486 0.0 0
M  V30 14 C 2.598 -0.75 0.0 0
M  V30 15 O 1.6969 -3.7856 0.0 0
M  V30 16 C 11.7739 1.7996 0.0 0
M  V30 17 C 9.4004 2.8563 0.0 0
M  V30 18 C 1.299 0.0 0.0 0
M  V30 19 C 10.8922 3.0131 0.0 0
M  V30 20 C 0.0 -0.75 0.0 0
M  V30 21 C 11.5023 4.3834 0.0 0
M  V30 22 C -1.299 0.0 0.0 0
M  V30 23 C 0.0 -2.25 0.0 0
M  V30 24 C -2.598 -0.75 0.0 0
M  V30 25 C -1.299 -3.0 0.0 0
M  V30 26 C -2.598 -2.25 0.0 0
M  V30 27 O -3.8971 -3.0 0.0 0
M  V30 28 C -3.8971 -4.5 0.0 0
M  V30 29 C -5.1961 -5.25 0.0 0
M  V30 30 C -3.1471 -5.799 0.0 0
M  V30 31 C -2.3971 -4.4999 0.0 0
M  V30 32 O -6.4951 -4.5 0.0 0
M  V30 33 O -5.1961 -6.75 0.0 0
M  V30 END ATOM
M  V30 BEGIN BOND
M  V30 1 2 1 2
M  V30 2 1 2 3
M  V30 3 1 2 4
M  V30 4 1 3 5
M  V30 5 1 3 6
M  V30 6 1 4 7
M  V30 7 1 4 8
M  V30 8 1 6 9
M  V30 9 1 7 10
M  V30 10 1 8 11
M  V30 11 2 9 12
M  V30 12 1 9 13
M  V30 13 1 10 14
M  V30 14 1 11 15
M  V30 15 1 12 16
M  V30 16 2 13 17
M  V30 17 1 14 18
M  V30 18 2 16 19
M  V30 19 1 18 20
M  V30 20 1 19 21
M  V30 21 2 20 22
M  V30 22 1 20 23
M  V30 23 1 22 24
M  V30 24 2 23 25
M  V30 25 2 24 26
M  V30 26 1 26 27
M  V30 27 1 27 28
M  V30 28 1 28 29
M  V30 29 1 28 30
M  V30 30 1 28 31
M  V30 31 2 29 32
M  V30 32 1 29 33
M  V30 33 2 5 7
M  V30 34 1 17 19
M  V30 35 1 25 26
M  V30 END BOND
M  V30 END CTAB
M  END
>  <Molecule ChEMBL ID>
CHEMBL148774

>  <Smiles>
Cc1ccc(Cn2nc(CCCc3ccc(OC(C)(C)C(=O)O)cc3)n(CCO)c2=O)cc1

>  <IC50_nM>
6095.37

>  <Assay Description>
Agonist activity at PPARgamma

$$$$
CHEMBL356170
Actelion Java MolfileCreator 2.0

  0  0  0  0  0  0              0 V3000
M  V30 BEGIN CTAB
M  V30 COUNTS 33 35 0 0 0
M  V30 BEGIN ATOM
M  V30 1 O 7.4302 -3.9239 0.0 0
M  V30 2 C 6.8201 -2.5536 0.0 0
M  V30 3 N 7.5701 -1.2546 0.0 0
M  V30 4 N 5.3529 -2.2417 0.0 0
M  V30 5 N 6.5664 -0.1398 0.0 0
M  V30 6 C 9.0619 -1.0978 0.0 0 CFG=2
M  V30 7 C 5.1961 -0.75 0.0 0
M  V30 8 C 4.2382 -3.2454 0.0 0
M  V30 9 C 9.9436 -2.3113 0.0 0
M  V30 10 C 9.672 0.2724 0.0 0
M  V30 11 C 3.8971 0.0 0.0 0
M  V30 12 C 2.8116 -2.7819 0.0 0
M  V30 13 C 9.3335 -3.6816 0.0 0
M  V30 14 C 11.4354 -2.1545 0.0 0
M  V30 15 C 2.598 -0.75 0.0 0
M  V30 16 C 1.6969 -3.7856 0.0 0
M  V30 17 C 10.2152 -4.8951 0.0 0
M  V30 18 C 12.3171 -3.368 0.0 0
M  V30 19 C 1.299 0.0 0.0 0
M  V30 20 C 11.7069 -4.7384 0.0 0
M  V30 21 C 0.0 -0.75 0.0 0
M  V30 22 C -1.299 0.0 0.0 0
M  V30 23 C 0.0 -2.25 0.0 0
M  V30 24 C -2.598 -0.75 0.0 0
M  V30 25 C -1.299 -3.0 0.0 0
M  V30 26 C -2.598 -2.25 0.0 0
M  V30 27 O -3.8971 -3.0 0.0 0
M  V30 28 C -3.8971 -4.5 0.0 0
M  V30 29 C -5.1961 -5.25 0.0 0
M  V30 30 C -3.1471 -5.799 0.0 0
M  V30 31 C -2.3971 -4.4999 0.0 0
M  V30 32 O -6.4951 -4.5 0.0 0
M  V30 33 O -5.1961 -6.75 0.0 0
M  V30 END ATOM
M  V30 BEGIN BOND
M  V30 1 2 1 2
M  V30 2 1 2 3
M  V30 3 1 2 4
M  V30 4 1 3 5
M  V30 5 1 3 6
M  V30 6 1 4 7
M  V30 7 1 4 8
M  V30 8 1 6 9
M  V30 9 1 6 10 CFG=1
M  V30 10 1 7 11
M  V30 11 1 8 12
M  V30 12 2 9 13
M  V30 13 1 9 14
M  V30 14 1 11 15
M  V30 15 1 12 16
M  V30 16 1 13 17
M  V30 17 2 14 18
M  V30 18 1 15 19
M  V30 19 2 17 20
M  V30 20 1 19 21
M  V30 21 2 21 22
M  V30 22 1 21 23
M  V30 23 1 22 24
M  V30 24 2 23 25
M  V30 25 2 24 26
M  V30 26 1 26 27
M  V30 27 1 27 28
M  V30 28 1 28 29
M  V30 29 1 28 30
M  V30 30 1 28 31
M  V30 31 2 29 32
M  V30 32 1 29 33
M  V30 33 2 5 7
M  V30 34 1 18 20
M  V30 35 1 25 26
M  V30 END BOND
M  V30 BEGIN COLLECTION
M  V30 MDLV30/STERAC1 ATOMS=(1 6)
M  V30 END COLLECTION
M  V30 END CTAB
M  END
>  <Molecule ChEMBL ID>
CHEMBL356170

>  <Smiles>
CCCn1c(CCCc2ccc(OC(C)(C)C(=O)O)cc2)nn(C(C)c2ccccc2)c1=O

>  <IC50_nM>
6100

>  <Assay Description>
Inhibitory activity of compound against the binding of human Peroxisome proliferator activated receptor gamma was determined

$$$$
CHEMBL4516607
Actelion Java MolfileCreator 2.0

  0  0  0  0  0  0              0 V3000
M  V30 BEGIN CTAB
M  V30 COUNTS 36 39 0 0 0
M  V30 BEGIN ATOM
M  V30 1 F 0.0 4.4999 0.0 0
M  V30 2 C 0.866 3.9999 0.0 0
M  V30 3 C 0.866 2.9999 0.0 0
M  V30 4 C 1.732 4.4999 0.0 0
M  V30 5 C 1.732 2.4999 0.0 0
M  V30 6 C 2.598 3.9999 0.0 0
M  V30 7 C 2.598 3.0 0.0 0
M  V30 8 C 3.4641 2.5 0.0 0
M  V30 9 O 3.4641 1.4999 0.0 0
M  V30 10 C 4.3301 1.0 0.0 0
M  V30 11 C 4.3301 0.0 0.0 0
M  V30 12 C 5.1961 1.5 0.0 0
M  V30 13 C 5.1961 -0.4999 0.0 0
M  V30 14 C 3.4641 -0.5 0.0 0
M  V30 15 C 6.0621 1.0 0.0 0
M  V30 16 C 6.0621 0.0 0.0 0
M  V30 17 C 3.4641 -1.5 0.0 0
M  V30 18 O 6.9282 -0.4999 0.0 0
M  V30 19 C 2.598 -1.9999 0.0 0
M  V30 20 C 4.3301 -2.0 0.0 0
M  V30 21 C 6.9282 -1.4999 0.0 0
M  V30 22 O 1.732 -1.4999 0.0 0
M  V30 23 O 2.598 -2.9999 0.0 0
M  V30 24 C 4.3301 -3.0 0.0 0
M  V30 25 C 7.7942 -1.9999 0.0 0
M  V30 26 C 5.1961 -3.5 0.0 0
M  V30 27 C 7.7942 -2.9999 0.0 0
M  V30 28 C 8.6602 -1.4999 0.0 0
M  V30 29 C 8.6602 -3.4999 0.0 0
M  V30 30 C 9.5262 -1.9999 0.0 0
M  V30 31 C 9.5262 -2.9999 0.0 0
M  V30 32 C 8.6602 -4.4999 0.0 0
M  V30 33 N 10.3923 -3.4999 0.0 0
M  V30 34 C 9.5262 -4.9999 0.0 0
M  V30 35 C 10.3923 -4.4999 0.0 0
M  V30 36 O 11.2583 -4.9999 0.0 0
M  V30 END ATOM
M  V30 BEGIN BOND
M  V30 1 1 1 2
M  V30 2 2 2 3
M  V30 3 1 2 4
M  V30 4 1 3 5
M  V30 5 2 4 6
M  V30 6 2 5 7
M  V30 7 1 7 8
M  V30 8 1 8 9
M  V30 9 1 9 10
M  V30 10 2 10 11
M  V30 11 1 10 12
M  V30 12 1 11 13
M  V30 13 1 11 14
M  V30 14 2 12 15
M  V30 15 2 13 16
M  V30 16 2 14 17
M  V30 17 1 16 18
M  V30 18 1 17 19
M  V30 19 1 17 20
M  V30 20 1 18 21
M  V30 21 2 19 22
M  V30 22 1 19 23
M  V30 23 1 20 24
M  V30 24 1 21 25
M  V30 25 1 24 26
M  V30 26 2 25 27
M  V30 27 1 25 28
M  V30 28 1 27 29
M  V30 29 2 28 30
M  V30 30 2 29 31
M  V30 31 1 29 32
M  V30 32 1 31 33
M  V30 33 2 32 34
M  V30 34 1 33 35
M  V30 35 2 35 36
M  V30 36 1 6 7
M  V30 37 1 15 16
M  V30 38 1 30 31
M  V30 39 1 34 35
M  V30 END BOND
M  V30 END CTAB
M  END
>  <Molecule ChEMBL ID>
CHEMBL4516607

>  <Smiles>
CCC/C(=C\c1cc(OCc2ccc3[nH]c(=O)ccc3c2)ccc1OCc1ccc(F)cc1)C(=O)O

>  <IC50_nM>
6100

>  <Assay Description>
Antagonist actvity in pFA-GAL4-DBD fused PPARgamma LBD (unknown origin) transfected in HEK293T cells assessed as inhibition of rosiglitazone-induced PPARgamma transactivation incubated for 24 hrs by luciferase reporter gene assay

$$$$
CHEMBL148774
Actelion Java MolfileCreator 2.0

  0  0  0  0  0  0              0 V3000
M  V30 BEGIN CTAB
M  V30 COUNTS 33 35 0 0 0
M  V30 BEGIN ATOM
M  V30 1 O 7.4302 -3.9239 0.0 0
M  V30 2 C 6.8201 -2.5536 0.0 0
M  V30 3 N 7.5701 -1.2546 0.0 0
M  V30 4 N 5.3529 -2.2417 0.0 0
M  V30 5 N 6.5664 -0.1398 0.0 0
M  V30 6 C 9.0619 -1.0978 0.0 0
M  V30 7 C 5.1961 -0.75 0.0 0
M  V30 8 C 4.2382 -3.2454 0.0 0
M  V30 9 C 9.672 0.2724 0.0 0
M  V30 10 C 3.8971 0.0 0.0 0
M  V30 11 C 2.8116 -2.7819 0.0 0
M  V30 12 C 11.1638 0.4292 0.0 0
M  V30 13 C 8.7903 1.486 0.0 0
M  V30 14 C 2.598 -0.75 0.0 0
M  V30 15 O 1.6969 -3.7856 0.0 0
M  V30 16 C 11.7739 1.7996 0.0 0
M  V30 17 C 9.4004 2.8563 0.0 0
M  V30 18 C 1.299 0.0 0.0 0
M  V30 19 C 10.8922 3.0131 0.0 0
M  V30 20 C 0.0 -0.75 0.0 0
M  V30 21 C 11.5023 4.3834 0.0 0
M  V30 22 C -1.299 0.0 0.0 0
M  V30 23 C 0.0 -2.25 0.0 0
M  V30 24 C -2.598 -0.75 0.0 0
M  V30 25 C -1.299 -3.0 0.0 0
M  V30 26 C -2.598 -2.25 0.0 0
M  V30 27 O -3.8971 -3.0 0.0 0
M  V30 28 C -3.8971 -4.5 0.0 0
M  V30 29 C -5.1961 -5.25 0.0 0
M  V30 30 C -3.1471 -5.799 0.0 0
M  V30 31 C -2.3971 -4.4999 0.0 0
M  V30 32 O -6.4951 -4.5 0.0 0
M  V30 33 O -5.1961 -6.75 0.0 0
M  V30 END ATOM
M  V30 BEGIN BOND
M  V30 1 2 1 2
M  V30 2 1 2 3
M  V30 3 1 2 4
M  V30 4 1 3 5
M  V30 5 1 3 6
M  V30 6 1 4 7
M  V30 7 1 4 8
M  V30 8 1 6 9
M  V30 9 1 7 10
M  V30 10 1 8 11
M  V30 11 2 9 12
M  V30 12 1 9 13
M  V30 13 1 10 14
M  V30 14 1 11 15
M  V30 15 1 12 16
M  V30 16 2 13 17
M  V30 17 1 14 18
M  V30 18 2 16 19
M  V30 19 1 18 20
M  V30 20 1 19 21
M  V30 21 2 20 22
M  V30 22 1 20 23
M  V30 23 1 22 24
M  V30 24 2 23 25
M  V30 25 2 24 26
M  V30 26 1 26 27
M  V30 27 1 27 28
M  V30 28 1 28 29
M  V30 29 1 28 30
M  V30 30 1 28 31
M  V30 31 2 29 32
M  V30 32 1 29 33
M  V30 33 2 5 7
M  V30 34 1 17 19
M  V30 35 1 25 26
M  V30 END BOND
M  V30 END CTAB
M  END
>  <Molecule ChEMBL ID>
CHEMBL148774

>  <Smiles>
Cc1ccc(Cn2nc(CCCc3ccc(OC(C)(C)C(=O)O)cc3)n(CCO)c2=O)cc1

>  <IC50_nM>
6100

>  <Assay Description>
Inhibitory activity of compound against the binding of human Peroxisome proliferator activated receptor gamma was determined

$$$$
CHEMBL4448302
Actelion Java MolfileCreator 2.0

  0  0  0  0  0  0              0 V3000
M  V30 BEGIN CTAB
M  V30 COUNTS 36 39 0 0 0
M  V30 BEGIN ATOM
M  V30 1 F 0.0 4.4999 0.0 0
M  V30 2 C 0.866 3.9999 0.0 0
M  V30 3 C 0.866 2.9999 0.0 0
M  V30 4 C 1.732 4.4999 0.0 0
M  V30 5 C 1.732 2.4999 0.0 0
M  V30 6 C 2.598 3.9999 0.0 0
M  V30 7 C 2.598 3.0 0.0 0
M  V30 8 C 3.4641 2.5 0.0 0
M  V30 9 O 3.4641 1.4999 0.0 0
M  V30 10 C 4.3301 1.0 0.0 0
M  V30 11 C 4.3301 0.0 0.0 0
M  V30 12 C 5.1961 1.5 0.0 0
M  V30 13 C 5.1961 -0.4999 0.0 0
M  V30 14 C 3.4641 -0.5 0.0 0
M  V30 15 C 6.0621 1.0 0.0 0
M  V30 16 C 6.0621 0.0 0.0 0
M  V30 17 C 3.4641 -1.5 0.0 0
M  V30 18 O 6.9282 -0.4999 0.0 0
M  V30 19 C 2.598 -1.9999 0.0 0
M  V30 20 C 4.3301 -2.0 0.0 0
M  V30 21 C 6.9282 -1.4999 0.0 0
M  V30 22 O 1.732 -1.4999 0.0 0
M  V30 23 O 2.598 -2.9999 0.0 0
M  V30 24 C 4.3301 -3.0 0.0 0
M  V30 25 C 7.7942 -1.9999 0.0 0
M  V30 26 C 5.1961 -3.5 0.0 0
M  V30 27 C 7.7942 -2.9999 0.0 0
M  V30 28 C 8.6602 -1.4999 0.0 0
M  V30 29 C 8.6602 -3.4999 0.0 0
M  V30 30 C 9.5262 -1.9999 0.0 0
M  V30 31 C 9.5262 -2.9999 0.0 0
M  V30 32 C 8.6602 -4.4999 0.0 0
M  V30 33 N 10.3923 -3.4999 0.0 0 CHG=1
M  V30 34 C 9.5262 -4.9999 0.0 0
M  V30 35 O 11.2583 -2.9999 0.0 0 CHG=-1
M  V30 36 C 10.3923 -4.4999 0.0 0
M  V30 END ATOM
M  V30 BEGIN BOND
M  V30 1 1 1 2
M  V30 2 2 2 3
M  V30 3 1 2 4
M  V30 4 1 3 5
M  V30 5 2 4 6
M  V30 6 2 5 7
M  V30 7 1 7 8
M  V30 8 1 8 9
M  V30 9 1 9 10
M  V30 10 2 10 11
M  V30 11 1 10 12
M  V30 12 1 11 13
M  V30 13 1 11 14
M  V30 14 2 12 15
M  V30 15 2 13 16
M  V30 16 2 14 17
M  V30 17 1 16 18
M  V30 18 1 17 19
M  V30 19 1 17 20
M  V30 20 1 18 21
M  V30 21 2 19 22
M  V30 22 1 19 23
M  V30 23 1 20 24
M  V30 24 1 21 25
M  V30 25 1 24 26
M  V30 26 2 25 27
M  V30 27 1 25 28
M  V30 28 1 27 29
M  V30 29 2 28 30
M  V30 30 1 29 31
M  V30 31 2 29 32
M  V30 32 2 31 33
M  V30 33 1 32 34
M  V30 34 1 33 35
M  V30 35 1 33 36
M  V30 36 1 6 7
M  V30 37 1 15 16
M  V30 38 1 30 31
M  V30 39 2 34 36
M  V30 END BOND
M  V30 END CTAB
M  END
>  <Molecule ChEMBL ID>
CHEMBL4448302

>  <Smiles>
CCC/C(=C\c1cc(OCc2ccc3c(ccc[n+]3[O-])c2)ccc1OCc1ccc(F)cc1)C(=O)O

>  <IC50_nM>
6100

>  <Assay Description>
Antagonist actvity in pFA-GAL4-DBD fused PPARgamma LBD (unknown origin) transfected in HEK293T cells assessed as inhibition of rosiglitazone-induced PPARgamma transactivation incubated for 24 hrs by luciferase reporter gene assay

$$$$
CHEMBL345721
Actelion Java MolfileCreator 2.0

  0  0  0  0  0  0              0 V3000
M  V30 BEGIN CTAB
M  V30 COUNTS 34 36 0 0 0
M  V30 BEGIN ATOM
M  V30 1 O 7.4302 -3.9239 0.0 0
M  V30 2 C 6.8201 -2.5536 0.0 0
M  V30 3 N 7.5701 -1.2546 0.0 0
M  V30 4 N 5.3529 -2.2417 0.0 0
M  V30 5 N 6.5664 -0.1398 0.0 0
M  V30 6 C 9.0619 -1.0978 0.0 0
M  V30 7 C 5.1961 -0.75 0.0 0
M  V30 8 C 4.2382 -3.2454 0.0 0
M  V30 9 C 9.672 0.2724 0.0 0
M  V30 10 C 3.8971 0.0 0.0 0
M  V30 11 C 2.8116 -2.7819 0.0 0
M  V30 12 C 11.1638 0.4292 0.0 0
M  V30 13 C 8.7903 1.486 0.0 0
M  V30 14 C 2.598 -0.75 0.0 0
M  V30 15 C 1.6969 -3.7856 0.0 0
M  V30 16 C 11.7739 1.7996 0.0 0
M  V30 17 C 9.4004 2.8563 0.0 0
M  V30 18 C 1.299 0.0 0.0 0
M  V30 19 O 13.2657 1.9564 0.0 0
M  V30 20 C 10.8922 3.0131 0.0 0
M  V30 21 C 0.0 -0.75 0.0 0
M  V30 22 C 13.8758 3.3267 0.0 0
M  V30 23 C -1.299 0.0 0.0 0
M  V30 24 C 0.0 -2.25 0.0 0
M  V30 25 C -2.598 -0.75 0.0 0
M  V30 26 C -1.299 -3.0 0.0 0
M  V30 27 C -2.598 -2.25 0.0 0
M  V30 28 O -3.8971 -3.0 0.0 0
M  V30 29 C -3.8971 -4.5 0.0 0
M  V30 30 C -5.1961 -5.25 0.0 0
M  V30 31 C -3.1471 -5.799 0.0 0
M  V30 32 C -2.3971 -4.4999 0.0 0
M  V30 33 O -6.4951 -4.5 0.0 0
M  V30 34 O -5.1961 -6.75 0.0 0
M  V30 END ATOM
M  V30 BEGIN BOND
M  V30 1 2 1 2
M  V30 2 1 2 3
M  V30 3 1 2 4
M  V30 4 1 3 5
M  V30 5 1 3 6
M  V30 6 1 4 7
M  V30 7 1 4 8
M  V30 8 1 6 9
M  V30 9 1 7 10
M  V30 10 1 8 11
M  V30 11 2 9 12
M  V30 12 1 9 13
M  V30 13 1 10 14
M  V30 14 1 11 15
M  V30 15 1 12 16
M  V30 16 2 13 17
M  V30 17 1 14 18
M  V30 18 1 16 19
M  V30 19 2 16 20
M  V30 20 1 18 21
M  V30 21 1 19 22
M  V30 22 2 21 23
M  V30 23 1 21 24
M  V30 24 1 23 25
M  V30 25 2 24 26
M  V30 26 2 25 27
M  V30 27 1 27 28
M  V30 28 1 28 29
M  V30 29 1 29 30
M  V30 30 1 29 31
M  V30 31 1 29 32
M  V30 32 2 30 33
M  V30 33 1 30 34
M  V30 34 2 5 7
M  V30 35 1 17 20
M  V30 36 1 26 27
M  V30 END BOND
M  V30 END CTAB
M  END
>  <Molecule ChEMBL ID>
CHEMBL345721

>  <Smiles>
CCCn1c(CCCc2ccc(OC(C)(C)C(=O)O)cc2)nn(Cc2cccc(OC)c2)c1=O

>  <IC50_nM>
6194.41

>  <Assay Description>
Agonist activity at PPARgamma

$$$$
CHEMBL455936
Actelion Java MolfileCreator 2.0

  0  0  0  0  0  0              0 V3000
M  V30 BEGIN CTAB
M  V30 COUNTS 31 34 0 0 0
M  V30 BEGIN ATOM
M  V30 1 Cl 6.0621 0.0 0.0 0
M  V30 2 C 5.1961 -0.5 0.0 0
M  V30 3 N 4.3301 0.0 0.0 0
M  V30 4 C 5.1961 -1.4999 0.0 0
M  V30 5 C 3.4641 -0.5 0.0 0
M  V30 6 C 4.3301 -1.9999 0.0 0
M  V30 7 S 2.598 0.0 0.0 0
M  V30 8 N 3.4641 -1.4999 0.0 0
M  V30 9 N 4.3301 -3.0 0.0 0
M  V30 10 C 1.732 -0.5 0.0 0 CFG=2
M  V30 11 C 5.1961 -3.5 0.0 0
M  V30 12 C 1.732 -1.5 0.0 0
M  V30 13 C 0.866 0.0 0.0 0
M  V30 14 C 5.1961 -4.5 0.0 0
M  V30 15 C 6.0621 -3.0 0.0 0
M  V30 16 C 0.866 -1.9999 0.0 0
M  V30 17 C 2.598 -2.0 0.0 0
M  V30 18 O 0.866 1.0 0.0 0
M  V30 19 O 0.0 -0.5 0.0 0
M  V30 20 C 6.0621 -5.0 0.0 0
M  V30 21 C 4.3301 -4.9999 0.0 0
M  V30 22 C 6.9282 -3.5 0.0 0
M  V30 23 C 0.866 -2.9999 0.0 0
M  V30 24 C 0.0 -1.4999 0.0 0
M  V30 25 C 2.598 -3.0 0.0 0
M  V30 26 C 6.9282 -4.5 0.0 0
M  V30 27 C 6.0621 -6.0 0.0 0
M  V30 28 C 1.732 -3.5 0.0 0
M  V30 29 C 0.0 -3.4999 0.0 0
M  V30 30 C -0.866 -1.9999 0.0 0
M  V30 31 C -0.866 -2.9999 0.0 0
M  V30 END ATOM
M  V30 BEGIN BOND
M  V30 1 1 1 2
M  V30 2 2 2 3
M  V30 3 1 2 4
M  V30 4 1 3 5
M  V30 5 2 4 6
M  V30 6 1 5 7
M  V30 7 2 5 8
M  V30 8 1 6 9
M  V30 9 1 10 7 CFG=3
M  V30 10 1 9 11
M  V30 11 1 10 12
M  V30 12 1 10 13
M  V30 13 2 11 14
M  V30 14 1 11 15
M  V30 15 1 12 16
M  V30 16 2 12 17
M  V30 17 2 13 18
M  V30 18 1 13 19
M  V30 19 1 14 20
M  V30 20 1 14 21
M  V30 21 2 15 22
M  V30 22 1 16 23
M  V30 23 2 16 24
M  V30 24 1 17 25
M  V30 25 2 20 26
M  V30 26 1 20 27
M  V30 27 1 23 28
M  V30 28 2 23 29
M  V30 29 1 24 30
M  V30 30 1 29 31
M  V30 31 1 6 8
M  V30 32 1 22 26
M  V30 33 2 25 28
M  V30 34 2 30 31
M  V30 END BOND
M  V30 BEGIN COLLECTION
M  V30 MDLV30/STERAC1 ATOMS=(1 10)
M  V30 END COLLECTION
M  V30 END CTAB
M  END
>  <Molecule ChEMBL ID>
CHEMBL455936

>  <Smiles>
Cc1cccc(Nc2cc(Cl)nc(SC(C(=O)O)c3cccc4ccccc34)n2)c1C

>  <IC50_nM>
6200

>  <Assay Description>
Activation of human PPARgamma ligand binding domain expressed in COS7 cells by luciferase reporter gene assay

$$$$
CHEMBL345721
Actelion Java MolfileCreator 2.0

  0  0  0  0  0  0              0 V3000
M  V30 BEGIN CTAB
M  V30 COUNTS 34 36 0 0 0
M  V30 BEGIN ATOM
M  V30 1 O 7.4302 -3.9239 0.0 0
M  V30 2 C 6.8201 -2.5536 0.0 0
M  V30 3 N 7.5701 -1.2546 0.0 0
M  V30 4 N 5.3529 -2.2417 0.0 0
M  V30 5 N 6.5664 -0.1398 0.0 0
M  V30 6 C 9.0619 -1.0978 0.0 0
M  V30 7 C 5.1961 -0.75 0.0 0
M  V30 8 C 4.2382 -3.2454 0.0 0
M  V30 9 C 9.672 0.2724 0.0 0
M  V30 10 C 3.8971 0.0 0.0 0
M  V30 11 C 2.8116 -2.7819 0.0 0
M  V30 12 C 11.1638 0.4292 0.0 0
M  V30 13 C 8.7903 1.486 0.0 0
M  V30 14 C 2.598 -0.75 0.0 0
M  V30 15 C 1.6969 -3.7856 0.0 0
M  V30 16 C 11.7739 1.7996 0.0 0
M  V30 17 C 9.4004 2.8563 0.0 0
M  V30 18 C 1.299 0.0 0.0 0
M  V30 19 O 13.2657 1.9564 0.0 0
M  V30 20 C 10.8922 3.0131 0.0 0
M  V30 21 C 0.0 -0.75 0.0 0
M  V30 22 C 13.8758 3.3267 0.0 0
M  V30 23 C -1.299 0.0 0.0 0
M  V30 24 C 0.0 -2.25 0.0 0
M  V30 25 C -2.598 -0.75 0.0 0
M  V30 26 C -1.299 -3.0 0.0 0
M  V30 27 C -2.598 -2.25 0.0 0
M  V30 28 O -3.8971 -3.0 0.0 0
M  V30 29 C -3.8971 -4.5 0.0 0
M  V30 30 C -5.1961 -5.25 0.0 0
M  V30 31 C -3.1471 -5.799 0.0 0
M  V30 32 C -2.3971 -4.4999 0.0 0
M  V30 33 O -6.4951 -4.5 0.0 0
M  V30 34 O -5.1961 -6.75 0.0 0
M  V30 END ATOM
M  V30 BEGIN BOND
M  V30 1 2 1 2
M  V30 2 1 2 3
M  V30 3 1 2 4
M  V30 4 1 3 5
M  V30 5 1 3 6
M  V30 6 1 4 7
M  V30 7 1 4 8
M  V30 8 1 6 9
M  V30 9 1 7 10
M  V30 10 1 8 11
M  V30 11 2 9 12
M  V30 12 1 9 13
M  V30 13 1 10 14
M  V30 14 1 11 15
M  V30 15 1 12 16
M  V30 16 2 13 17
M  V30 17 1 14 18
M  V30 18 1 16 19
M  V30 19 2 16 20
M  V30 20 1 18 21
M  V30 21 1 19 22
M  V30 22 2 21 23
M  V30 23 1 21 24
M  V30 24 1 23 25
M  V30 25 2 24 26
M  V30 26 2 25 27
M  V30 27 1 27 28
M  V30 28 1 28 29
M  V30 29 1 29 30
M  V30 30 1 29 31
M  V30 31 1 29 32
M  V30 32 2 30 33
M  V30 33 1 30 34
M  V30 34 2 5 7
M  V30 35 1 17 20
M  V30 36 1 26 27
M  V30 END BOND
M  V30 END CTAB
M  END
>  <Molecule ChEMBL ID>
CHEMBL345721

>  <Smiles>
CCCn1c(CCCc2ccc(OC(C)(C)C(=O)O)cc2)nn(Cc2cccc(OC)c2)c1=O

>  <IC50_nM>
6200

>  <Assay Description>
Inhibitory activity of compound against the binding of human Peroxisome proliferator activated receptor gamma was determined

$$$$
CHEMBL267476
Actelion Java MolfileCreator 2.0

  0  0  0  0  0  0              0 V3000
M  V30 BEGIN CTAB
M  V30 COUNTS 20 19 0 0 0
M  V30 BEGIN ATOM
M  V30 1 O 15.5884 -0.5 0.0 0
M  V30 2 C 14.7224 0.0 0.0 0
M  V30 3 O 14.7224 1.0 0.0 0
M  V30 4 C 13.8564 -0.5 0.0 0
M  V30 5 C 12.9903 0.0 0.0 0
M  V30 6 C 12.1243 -0.5 0.0 0
M  V30 7 C 11.2583 0.0 0.0 0
M  V30 8 C 10.3923 -0.5 0.0 0
M  V30 9 C 9.5262 0.0 0.0 0
M  V30 10 C 8.6602 -0.5 0.0 0
M  V30 11 C 7.7942 0.0 0.0 0
M  V30 12 C 6.9282 -0.5 0.0 0
M  V30 13 C 6.9282 -1.4999 0.0 0
M  V30 14 C 6.0621 -2.0 0.0 0
M  V30 15 C 6.0621 -3.0 0.0 0
M  V30 16 C 6.9282 -3.4999 0.0 0
M  V30 17 C 6.9282 -4.5 0.0 0
M  V30 18 C 7.7942 -4.9999 0.0 0
M  V30 19 C 7.7942 -5.9999 0.0 0
M  V30 20 C 8.6602 -6.4999 0.0 0
M  V30 END ATOM
M  V30 BEGIN BOND
M  V30 1 2 1 2
M  V30 2 1 2 3
M  V30 3 1 2 4
M  V30 4 1 4 5
M  V30 5 1 5 6
M  V30 6 1 6 7
M  V30 7 1 7 8
M  V30 8 1 8 9
M  V30 9 1 9 10
M  V30 10 1 10 11
M  V30 11 2 11 12
M  V30 12 1 12 13
M  V30 13 1 13 14
M  V30 14 2 14 15
M  V30 15 1 15 16
M  V30 16 1 16 17
M  V30 17 1 17 18
M  V30 18 1 18 19
M  V30 19 1 19 20
M  V30 END BOND
M  V30 END CTAB
M  END
>  <Molecule ChEMBL ID>
CHEMBL267476

>  <Smiles>
CCCCC/C=C\C/C=C\CCCCCCCC(=O)O

>  <IC50_nM>
6200

>  <Assay Description>
Displacement of [3H]BRL49653 from Homo sapiens (human) PPARgamma receptor by scintillation proximity assay

$$$$
CHEMBL391084
Actelion Java MolfileCreator 2.0

  0  0  0  0  0  0              0 V3000
M  V30 BEGIN CTAB
M  V30 COUNTS 32 35 0 0 0
M  V30 BEGIN ATOM
M  V30 1 S 5.2674 -0.6101 0.0 0
M  V30 2 C 6.2711 0.5046 0.0 0
M  V30 3 C 3.8971 0.0 0.0 0
M  V30 4 N 5.5211 1.8036 0.0 0
M  V30 5 C 7.7629 0.3478 0.0 0
M  V30 6 C 4.0539 1.4917 0.0 0
M  V30 7 C 2.598 -0.75 0.0 0
M  V30 8 C 8.373 -1.0224 0.0 0
M  V30 9 C 8.6445 1.5613 0.0 0
M  V30 10 C 2.9391 2.4954 0.0 0
M  V30 11 O 1.299 0.0 0.0 0
M  V30 12 C 9.8647 -1.1792 0.0 0
M  V30 13 C 10.1363 1.4045 0.0 0
M  V30 14 C 0.0 -0.75 0.0 0
M  V30 15 C 10.7464 0.0342 0.0 0
M  V30 16 C -1.299 0.0 0.0 0
M  V30 17 C 0.0 -2.2499 0.0 0
M  V30 18 C 12.2382 -0.1225 0.0 0
M  V30 19 C -2.598 -0.7499 0.0 0
M  V30 20 C -1.299 1.5 0.0 0
M  V30 21 C -1.299 -2.9999 0.0 0
M  V30 22 F 12.395 1.3692 0.0 0
M  V30 23 F 13.73 -0.2793 0.0 0
M  V30 24 F 12.0814 -1.6143 0.0 0
M  V30 25 C -2.598 -2.2499 0.0 0
M  V30 26 S -1.6109 -4.4672 0.0 0
M  V30 27 C -3.7127 -3.2536 0.0 0
M  V30 28 C -3.1026 -4.624 0.0 0
M  V30 29 C -5.18 -2.9418 0.0 0
M  V30 30 C -5.6435 -1.5152 0.0 0
M  V30 31 O -4.6398 -0.4005 0.0 0
M  V30 32 O -7.1107 -1.2033 0.0 0
M  V30 END ATOM
M  V30 BEGIN BOND
M  V30 1 1 1 2
M  V30 2 1 1 3
M  V30 3 2 2 4
M  V30 4 1 2 5
M  V30 5 2 3 6
M  V30 6 1 3 7
M  V30 7 2 5 8
M  V30 8 1 5 9
M  V30 9 1 6 10
M  V30 10 1 7 11
M  V30 11 1 8 12
M  V30 12 2 9 13
M  V30 13 1 11 14
M  V30 14 2 12 15
M  V30 15 2 14 16
M  V30 16 1 14 17
M  V30 17 1 15 18
M  V30 18 1 16 19
M  V30 19 1 16 20
M  V30 20 2 17 21
M  V30 21 1 18 22
M  V30 22 1 18 23
M  V30 23 1 18 24
M  V30 24 2 19 25
M  V30 25 1 21 26
M  V30 26 1 25 27
M  V30 27 1 26 28
M  V30 28 1 27 29
M  V30 29 1 29 30
M  V30 30 2 30 31
M  V30 31 1 30 32
M  V30 32 1 4 6
M  V30 33 1 13 15
M  V30 34 1 21 25
M  V30 35 2 27 28
M  V30 END BOND
M  V30 END CTAB
M  END
>  <Molecule ChEMBL ID>
CHEMBL391084

>  <Smiles>
Cc1cc2c(CC(=O)O)csc2cc1OCc1sc(-c2ccc(C(F)(F)F)cc2)nc1C

>  <IC50_nM>
6260

>  <Assay Description>
Displacement of [3H]5-(4-(3-(5-methyl-2-phenyloxazol-4-yl)propanoyl)benzyl)thiazolidine-2,4-dione from human PPARgamma after 2 hrs by SPA

$$$$
CHEMBL391084
Actelion Java MolfileCreator 2.0

  0  0  0  0  0  0              0 V3000
M  V30 BEGIN CTAB
M  V30 COUNTS 32 35 0 0 0
M  V30 BEGIN ATOM
M  V30 1 S 5.2674 -0.6101 0.0 0
M  V30 2 C 6.2711 0.5046 0.0 0
M  V30 3 C 3.8971 0.0 0.0 0
M  V30 4 N 5.5211 1.8036 0.0 0
M  V30 5 C 7.7629 0.3478 0.0 0
M  V30 6 C 4.0539 1.4917 0.0 0
M  V30 7 C 2.598 -0.75 0.0 0
M  V30 8 C 8.373 -1.0224 0.0 0
M  V30 9 C 8.6445 1.5613 0.0 0
M  V30 10 C 2.9391 2.4954 0.0 0
M  V30 11 O 1.299 0.0 0.0 0
M  V30 12 C 9.8647 -1.1792 0.0 0
M  V30 13 C 10.1363 1.4045 0.0 0
M  V30 14 C 0.0 -0.75 0.0 0
M  V30 15 C 10.7464 0.0342 0.0 0
M  V30 16 C -1.299 0.0 0.0 0
M  V30 17 C 0.0 -2.2499 0.0 0
M  V30 18 C 12.2382 -0.1225 0.0 0
M  V30 19 C -2.598 -0.7499 0.0 0
M  V30 20 C -1.299 1.5 0.0 0
M  V30 21 C -1.299 -2.9999 0.0 0
M  V30 22 F 12.395 1.3692 0.0 0
M  V30 23 F 13.73 -0.2793 0.0 0
M  V30 24 F 12.0814 -1.6143 0.0 0
M  V30 25 C -2.598 -2.2499 0.0 0
M  V30 26 S -1.6109 -4.4672 0.0 0
M  V30 27 C -3.7127 -3.2536 0.0 0
M  V30 28 C -3.1026 -4.624 0.0 0
M  V30 29 C -5.18 -2.9418 0.0 0
M  V30 30 C -5.6435 -1.5152 0.0 0
M  V30 31 O -4.6398 -0.4005 0.0 0
M  V30 32 O -7.1107 -1.2033 0.0 0
M  V30 END ATOM
M  V30 BEGIN BOND
M  V30 1 1 1 2
M  V30 2 1 1 3
M  V30 3 2 2 4
M  V30 4 1 2 5
M  V30 5 2 3 6
M  V30 6 1 3 7
M  V30 7 2 5 8
M  V30 8 1 5 9
M  V30 9 1 6 10
M  V30 10 1 7 11
M  V30 11 1 8 12
M  V30 12 2 9 13
M  V30 13 1 11 14
M  V30 14 2 12 15
M  V30 15 2 14 16
M  V30 16 1 14 17
M  V30 17 1 15 18
M  V30 18 1 16 19
M  V30 19 1 16 20
M  V30 20 2 17 21
M  V30 21 1 18 22
M  V30 22 1 18 23
M  V30 23 1 18 24
M  V30 24 2 19 25
M  V30 25 1 21 26
M  V30 26 1 25 27
M  V30 27 1 26 28
M  V30 28 1 27 29
M  V30 29 1 29 30
M  V30 30 2 30 31
M  V30 31 1 30 32
M  V30 32 1 4 6
M  V30 33 1 13 15
M  V30 34 1 21 25
M  V30 35 2 27 28
M  V30 END BOND
M  V30 END CTAB
M  END
>  <Molecule ChEMBL ID>
CHEMBL391084

>  <Smiles>
Cc1cc2c(CC(=O)O)csc2cc1OCc1sc(-c2ccc(C(F)(F)F)cc2)nc1C

>  <IC50_nM>
6266.14

>  <Assay Description>
Agonist activity at PPARgamma

$$$$
CHEMBL361427
Actelion Java MolfileCreator 2.0

  0  0  0  0  0  0              0 V3000
M  V30 BEGIN CTAB
M  V30 COUNTS 31 34 0 0 0
M  V30 BEGIN ATOM
M  V30 1 Cl 6.4951 -3.0 0.0 0
M  V30 2 C 5.1961 -2.25 0.0 0
M  V30 3 C 5.1961 -0.75 0.0 0
M  V30 4 C 3.8971 -2.9999 0.0 0
M  V30 5 C 3.8971 0.0 0.0 0
M  V30 6 C 2.598 -2.25 0.0 0
M  V30 7 C 2.598 -0.75 0.0 0
M  V30 8 C 1.299 0.0 0.0 0
M  V30 9 O 1.299 1.5 0.0 0
M  V30 10 N 0.0 -0.75 0.0 0
M  V30 11 C -1.3703 -0.1398 0.0 0
M  V30 12 C -0.1567 -2.2417 0.0 0
M  V30 13 C -2.374 -1.2546 0.0 0
M  V30 14 C -1.8338 1.2866 0.0 0
M  V30 15 C -1.624 -2.5536 0.0 0
M  V30 16 C 0.9579 -3.2454 0.0 0
M  V30 17 C -3.8412 -0.9427 0.0 0
M  V30 18 C -3.301 1.5985 0.0 0
M  V30 19 C -2.2341 -3.9239 0.0 0
M  V30 20 C -4.3047 0.4838 0.0 0
M  V30 21 C -1.3524 -5.1374 0.0 0
M  V30 22 O -5.7719 0.7957 0.0 0
M  V30 23 C -1.9625 -6.5078 0.0 0
M  V30 24 C 0.1393 -4.9807 0.0 0
M  V30 25 C -6.7756 -0.319 0.0 0
M  V30 26 C -3.4543 -6.6646 0.0 0
M  V30 27 C -1.0808 -7.7213 0.0 0
M  V30 28 C 1.021 -6.1942 0.0 0
M  V30 29 O -4.336 -5.451 0.0 0
M  V30 30 O -4.0644 -8.0349 0.0 0
M  V30 31 C 0.4109 -7.5645 0.0 0
M  V30 END ATOM
M  V30 BEGIN BOND
M  V30 1 1 1 2
M  V30 2 2 2 3
M  V30 3 1 2 4
M  V30 4 1 3 5
M  V30 5 2 4 6
M  V30 6 2 5 7
M  V30 7 1 7 8
M  V30 8 2 8 9
M  V30 9 1 8 10
M  V30 10 1 10 11
M  V30 11 1 10 12
M  V30 12 2 11 13
M  V30 13 1 11 14
M  V30 14 2 12 15
M  V30 15 1 12 16
M  V30 16 1 13 17
M  V30 17 2 14 18
M  V30 18 1 15 19
M  V30 19 2 17 20
M  V30 20 1 19 21
M  V30 21 1 20 22
M  V30 22 2 21 23
M  V30 23 1 21 24
M  V30 24 1 22 25
M  V30 25 1 23 26
M  V30 26 1 23 27
M  V30 27 2 24 28
M  V30 28 2 26 29
M  V30 29 1 26 30
M  V30 30 2 27 31
M  V30 31 1 6 7
M  V30 32 1 13 15
M  V30 33 1 18 20
M  V30 34 1 28 31
M  V30 END BOND
M  V30 END CTAB
M  END
>  <Molecule ChEMBL ID>
CHEMBL361427

>  <Smiles>
COc1ccc2c(c1)c(Cc1ccccc1C(=O)O)c(C)n2C(=O)c1ccc(Cl)cc1

>  <IC50_nM>
6280

>  <Assay Description>
In vitro inhibition of human Peroxisome proliferator activated receptor gamma

$$$$
CHEMBL4210210
Actelion Java MolfileCreator 2.0

  0  0  0  0  0  0              0 V3000
M  V30 BEGIN CTAB
M  V30 COUNTS 27 29 0 0 0
M  V30 BEGIN ATOM
M  V30 1 O 1.732 -1.5 0.0 0
M  V30 2 C 1.732 -0.5 0.0 0
M  V30 3 O 2.598 0.0 0.0 0
M  V30 4 C 0.866 0.0 0.0 0
M  V30 5 C 3.4641 -0.5 0.0 0
M  V30 6 C 0.0 -0.5 0.0 0
M  V30 7 C -0.866 0.0 0.0 0
M  V30 8 C 0.0 -1.4999 0.0 0
M  V30 9 C -1.732 -0.4999 0.0 0
M  V30 10 C -0.866 -1.9999 0.0 0
M  V30 11 C -1.732 -1.4999 0.0 0
M  V30 12 O -2.598 -1.9999 0.0 0
M  V30 13 C -3.4641 -1.4999 0.0 0
M  V30 14 C -4.3301 -1.9999 0.0 0
M  V30 15 O -5.2436 -1.5932 0.0 0
M  V30 16 C -4.4346 -2.9945 0.0 0
M  V30 17 C -5.9128 -2.3364 0.0 0
M  V30 18 N -5.4128 -3.2024 0.0 0
M  V30 19 C -3.6915 -3.6636 0.0 0
M  V30 20 C -6.9073 -2.2318 0.0 0
M  V30 21 C -7.314 -1.3183 0.0 0
M  V30 22 C -7.4951 -3.0408 0.0 0
M  V30 23 O -6.7262 -0.5093 0.0 0
M  V30 24 C -8.3085 -1.2138 0.0 0
M  V30 25 C -8.4896 -2.9363 0.0 0
M  V30 26 C -7.133 0.4042 0.0 0
M  V30 27 C -8.8963 -2.0228 0.0 0
M  V30 END ATOM
M  V30 BEGIN BOND
M  V30 1 2 1 2
M  V30 2 1 2 3
M  V30 3 1 2 4
M  V30 4 1 3 5
M  V30 5 1 4 6
M  V30 6 2 6 7
M  V30 7 1 6 8
M  V30 8 1 7 9
M  V30 9 2 8 10
M  V30 10 2 9 11
M  V30 11 1 11 12
M  V30 12 1 12 13
M  V30 13 1 13 14
M  V30 14 1 14 15
M  V30 15 2 14 16
M  V30 16 1 15 17
M  V30 17 1 16 18
M  V30 18 1 16 19
M  V30 19 1 17 20
M  V30 20 2 20 21
M  V30 21 1 20 22
M  V30 22 1 21 23
M  V30 23 1 21 24
M  V30 24 2 22 25
M  V30 25 1 23 26
M  V30 26 2 24 27
M  V30 27 1 10 11
M  V30 28 2 17 18
M  V30 29 1 25 27
M  V30 END BOND
M  V30 END CTAB
M  END
>  <Molecule ChEMBL ID>
CHEMBL4210210

>  <Smiles>
COC(=O)Cc1ccc(OCc2oc(-c3ccccc3OC)nc2C)cc1

>  <IC50_nM>
6300

>  <Assay Description>
Antagonist activity at CMV-fused PPARgamma-LBD-GAL4-DBD (unknown origin) expressed in HEK293T cells assessed as inhibition of rosiglitazone-induced receptor transactivation after 16 hrs by bright-Glo luciferase reporter gene assay

$$$$
CHEMBL3598140
Actelion Java MolfileCreator 2.0

  0  0  0  0  0  0              0 V3000
M  V30 BEGIN CTAB
M  V30 COUNTS 31 34 0 0 0
M  V30 BEGIN ATOM
M  V30 1 Cl -0.866 0.9999 0.0 0
M  V30 2 C 0.0 1.4999 0.0 0
M  V30 3 C 0.866 0.9999 0.0 0
M  V30 4 C 0.0 2.4999 0.0 0
M  V30 5 C 1.732 1.5 0.0 0
M  V30 6 C 0.866 0.0 0.0 0
M  V30 7 C 0.866 3.0 0.0 0
M  V30 8 C 1.732 2.4999 0.0 0
M  V30 9 C 2.598 1.0 0.0 0
M  V30 10 O 1.732 -0.5 0.0 0
M  V30 11 N 0.0 -0.5 0.0 0
M  V30 12 F 3.098 1.866 0.0 0
M  V30 13 F 3.4641 0.5 0.0 0
M  V30 14 F 2.098 0.1339 0.0 0
M  V30 15 N -0.9135 -0.0932 0.0 0
M  V30 16 C -0.1045 -1.4945 0.0 0
M  V30 17 C -1.5826 -0.8364 0.0 0
M  V30 18 C -1.0826 -1.7024 0.0 0
M  V30 19 C 0.5646 -2.2376 0.0 0
M  V30 20 C -2.5771 -0.7318 0.0 0
M  V30 21 C -1.3916 -2.6534 0.0 0
M  V30 22 C 0.2555 -3.1887 0.0 0
M  V30 23 C -2.9839 0.1816 0.0 0
M  V30 24 C -3.1649 -1.5408 0.0 0
M  V30 25 C -0.7225 -3.3966 0.0 0
M  V30 26 C -3.9784 0.2861 0.0 0
M  V30 27 C -4.1595 -1.4363 0.0 0
M  V30 28 C -4.5662 -0.5228 0.0 0
M  V30 29 C -5.5607 -0.4182 0.0 0
M  V30 30 O -5.9675 0.4952 0.0 0
M  V30 31 O -6.1485 -1.2273 0.0 0
M  V30 END ATOM
M  V30 BEGIN BOND
M  V30 1 1 1 2
M  V30 2 2 2 3
M  V30 3 1 2 4
M  V30 4 1 3 5
M  V30 5 1 3 6
M  V30 6 2 4 7
M  V30 7 2 5 8
M  V30 8 1 5 9
M  V30 9 2 6 10
M  V30 10 1 6 11
M  V30 11 1 9 12
M  V30 12 1 9 13
M  V30 13 1 9 14
M  V30 14 1 11 15
M  V30 15 1 11 16
M  V30 16 2 15 17
M  V30 17 2 16 18
M  V30 18 1 16 19
M  V30 19 1 17 20
M  V30 20 1 18 21
M  V30 21 2 19 22
M  V30 22 2 20 23
M  V30 23 1 20 24
M  V30 24 2 21 25
M  V30 25 1 23 26
M  V30 26 2 24 27
M  V30 27 2 26 28
M  V30 28 1 28 29
M  V30 29 2 29 30
M  V30 30 1 29 31
M  V30 31 1 7 8
M  V30 32 1 17 18
M  V30 33 1 22 25
M  V30 34 1 27 28
M  V30 END BOND
M  V30 END CTAB
M  END
>  <Molecule ChEMBL ID>
CHEMBL3598140

>  <Smiles>
O=C(O)c1ccc(-c2nn(C(=O)c3c(Cl)cccc3C(F)(F)F)c3ccccc23)cc1

>  <IC50_nM>
6300

>  <Assay Description>
Inverse agonist activity at His6-tagged PPARgamma LBD (unknown origin) assessed as N-terminal biotinylated PGC1a coactivator peptide recruitment in presence of rosiglitazone by TR-FRET assay

$$$$
CHEMBL519345
Actelion Java MolfileCreator 2.0

  0  0  0  0  0  0              0 V3000
M  V30 BEGIN CTAB
M  V30 COUNTS 32 35 0 0 0
M  V30 BEGIN ATOM
M  V30 1 S 5.1961 3.75 0.0 0
M  V30 2 O 4.4461 5.049 0.0 0
M  V30 3 O 3.6961 3.7499 0.0 0
M  V30 4 N 6.4951 4.5 0.0 0
M  V30 5 C 5.1961 2.25 0.0 0
M  V30 6 C 7.7942 3.75 0.0 0
M  V30 7 C 6.4951 6.0 0.0 0
M  V30 8 C 3.8971 1.5 0.0 0
M  V30 9 C 6.4951 1.5 0.0 0
M  V30 10 C 9.0932 4.5 0.0 0
M  V30 11 C 7.7942 6.75 0.0 0
M  V30 12 C 3.8971 0.0 0.0 0
M  V30 13 C 6.4951 0.0 0.0 0
M  V30 14 C 9.0932 6.0 0.0 0
M  V30 15 C 10.3923 3.75 0.0 0
M  V30 16 C 2.598 -0.75 0.0 0
M  V30 17 C 5.1961 -0.75 0.0 0
M  V30 18 C 10.3923 6.75 0.0 0
M  V30 19 C 11.6913 4.5 0.0 0
M  V30 20 O 2.598 -2.25 0.0 0
M  V30 21 N 1.299 0.0 0.0 0
M  V30 22 C 11.6913 6.0 0.0 0
M  V30 23 C 0.0 -0.75 0.0 0
M  V30 24 C -1.299 0.0 0.0 0
M  V30 25 C 0.0 -2.25 0.0 0
M  V30 26 C -1.299 1.5 0.0 0
M  V30 27 C -2.598 -0.75 0.0 0
M  V30 28 C -1.299 -3.0 0.0 0
M  V30 29 O 0.0 2.25 0.0 0
M  V30 30 O -2.598 2.25 0.0 0
M  V30 31 C -2.598 -2.25 0.0 0
M  V30 32 F -3.8971 -3.0 0.0 0
M  V30 END ATOM
M  V30 BEGIN BOND
M  V30 1 2 1 2
M  V30 2 2 1 3
M  V30 3 1 1 4
M  V30 4 1 1 5
M  V30 5 1 4 6
M  V30 6 1 4 7
M  V30 7 2 5 8
M  V30 8 1 5 9
M  V30 9 1 6 10
M  V30 10 1 7 11
M  V30 11 1 8 12
M  V30 12 2 9 13
M  V30 13 2 10 14
M  V30 14 1 10 15
M  V30 15 1 12 16
M  V30 16 2 12 17
M  V30 17 1 14 18
M  V30 18 2 15 19
M  V30 19 2 16 20
M  V30 20 1 16 21
M  V30 21 2 18 22
M  V30 22 1 21 23
M  V30 23 2 23 24
M  V30 24 1 23 25
M  V30 25 1 24 26
M  V30 26 1 24 27
M  V30 27 2 25 28
M  V30 28 2 26 29
M  V30 29 1 26 30
M  V30 30 2 27 31
M  V30 31 1 31 32
M  V30 32 1 11 14
M  V30 33 1 13 17
M  V30 34 1 19 22
M  V30 35 1 28 31
M  V30 END BOND
M  V30 END CTAB
M  END
>  <Molecule ChEMBL ID>
CHEMBL519345

>  <Smiles>
O=C(Nc1ccc(F)cc1C(=O)O)c1cccc(S(=O)(=O)N2CCc3ccccc3C2)c1

>  <IC50_nM>
6309.57

>  <Assay Description>
Agonist activity at PPARgamma

$$$$
CHEMBL1760407
Actelion Java MolfileCreator 2.0

  0  0  0  0  0  0              0 V3000
M  V30 BEGIN CTAB
M  V30 COUNTS 37 40 0 0 0
M  V30 BEGIN ATOM
M  V30 1 Cl -3.8971 -7.5 0.0 0
M  V30 2 C -2.598 -6.75 0.0 0
M  V30 3 C -2.598 -5.25 0.0 0
M  V30 4 C -1.299 -7.5 0.0 0
M  V30 5 C -1.299 -4.5 0.0 0
M  V30 6 C 0.0 -6.75 0.0 0
M  V30 7 C 0.0 -5.25 0.0 0
M  V30 8 C 1.299 -4.5 0.0 0
M  V30 9 C 1.299 -3.0 0.0 0
M  V30 10 C 2.598 -5.25 0.0 0
M  V30 11 C 2.598 -2.25 0.0 0
M  V30 12 C 0.0 -2.25 0.0 0
M  V30 13 C 3.8971 -4.5 0.0 0
M  V30 14 N 2.598 -0.75 0.0 0
M  V30 15 C 3.8971 -3.0 0.0 0
M  V30 16 S 3.8971 0.0 0.0 0
M  V30 17 C 1.299 0.0 0.0 0
M  V30 18 O 4.6471 1.299 0.0 0
M  V30 19 O 3.1471 1.299 0.0 0
M  V30 20 C 5.1961 -0.75 0.0 0
M  V30 21 C 1.299 1.5 0.0 0
M  V30 22 C 6.4951 0.0 0.0 0
M  V30 23 C 5.1961 -2.25 0.0 0
M  V30 24 C 0.2383 2.5606 0.0 0
M  V30 25 C 2.3597 2.5606 0.0 0
M  V30 26 C 7.7942 -0.75 0.0 0
M  V30 27 C 6.4951 1.5 0.0 0
M  V30 28 C 6.4951 -3.0 0.0 0
M  V30 29 C 1.299 3.6213 0.0 0
M  V30 30 C 7.7942 -2.25 0.0 0
M  V30 31 C 9.0932 0.0 0.0 0
M  V30 32 O 9.0932 -3.0 0.0 0
M  V30 33 C 9.0932 -4.5 0.0 0 CFG=2
M  V30 34 C 10.3923 -5.25 0.0 0
M  V30 35 C 7.7942 -5.25 0.0 0
M  V30 36 O 11.6913 -4.5 0.0 0
M  V30 37 O 10.3923 -6.75 0.0 0
M  V30 END ATOM
M  V30 BEGIN BOND
M  V30 1 1 1 2
M  V30 2 2 2 3
M  V30 3 1 2 4
M  V30 4 1 3 5
M  V30 5 2 4 6
M  V30 6 2 5 7
M  V30 7 1 7 8
M  V30 8 2 8 9
M  V30 9 1 8 10
M  V30 10 1 9 11
M  V30 11 1 9 12
M  V30 12 2 10 13
M  V30 13 1 11 14
M  V30 14 2 11 15
M  V30 15 1 14 16
M  V30 16 1 14 17
M  V30 17 2 16 18
M  V30 18 2 16 19
M  V30 19 1 16 20
M  V30 20 1 17 21
M  V30 21 2 20 22
M  V30 22 1 20 23
M  V30 23 1 21 24
M  V30 24 1 21 25
M  V30 25 1 22 26
M  V30 26 1 22 27
M  V30 27 2 23 28
M  V30 28 1 24 29
M  V30 29 2 26 30
M  V30 30 1 26 31
M  V30 31 1 30 32
M  V30 32 1 32 33
M  V30 33 1 33 34
M  V30 34 1 33 35 CFG=3
M  V30 35 2 34 36
M  V30 36 1 34 37
M  V30 37 1 6 7
M  V30 38 1 13 15
M  V30 39 1 25 29
M  V30 40 1 28 30
M  V30 END BOND
M  V30 BEGIN COLLECTION
M  V30 MDLV30/STERAC1 ATOMS=(1 33)
M  V30 END COLLECTION
M  V30 END CTAB
M  END
>  <Molecule ChEMBL ID>
CHEMBL1760407

>  <Smiles>
Cc1c(-c2ccc(Cl)cc2)cccc1N(CC1CCC1)S(=O)(=O)c1ccc(OC(C)C(=O)O)c(C)c1C

>  <IC50_nM>
6309.57

>  <Assay Description>
Displacement of [3H]GW 2433 from human PPARgamma by scintillation proximity assay

$$$$
CHEMBL267996
Actelion Java MolfileCreator 2.0

  0  0  0  0  0  0              0 V3000
M  V30 BEGIN CTAB
M  V30 COUNTS 54 59 0 0 0
M  V30 BEGIN ATOM
M  V30 1 O 5.1961 -0.5 0.0 0
M  V30 2 C 4.3301 0.0 0.0 0
M  V30 3 N 3.4641 -0.5 0.0 0
M  V30 4 C 4.3301 1.0 0.0 0
M  V30 5 C 2.598 0.0 0.0 0
M  V30 6 C 5.1961 1.4999 0.0 0
M  V30 7 C 3.4641 1.5 0.0 0
M  V30 8 C 1.732 -0.5 0.0 0 CFG=1
M  V30 9 C 5.1961 2.5 0.0 0
M  V30 10 C 3.4641 2.5 0.0 0
M  V30 11 N 1.732 -1.5 0.0 0
M  V30 12 C 0.866 0.0 0.0 0
M  V30 13 O 6.0621 2.9999 0.0 0
M  V30 14 C 4.3301 3.0 0.0 0
M  V30 15 C 2.598 -1.9999 0.0 0
M  V30 16 C 0.0 -0.5 0.0 0
M  V30 17 C 6.9282 2.4999 0.0 0
M  V30 18 C 2.598 -3.0 0.0 0
M  V30 19 C 3.4641 -1.5 0.0 0
M  V30 20 C -0.866 0.0 0.0 0
M  V30 21 C 0.0 -1.4999 0.0 0
M  V30 22 C 7.7942 2.9999 0.0 0
M  V30 23 C 1.732 -3.4999 0.0 0
M  V30 24 C 3.4641 -3.5 0.0 0
M  V30 25 C 4.3301 -2.0 0.0 0
M  V30 26 C -1.732 -0.4999 0.0 0
M  V30 27 C -0.866 -1.9999 0.0 0
M  V30 28 N 8.6602 2.4999 0.0 0
M  V30 29 O 0.866 -2.9999 0.0 0
M  V30 30 C 1.732 -4.4999 0.0 0
M  V30 31 C 4.3301 -3.0 0.0 0
M  V30 32 C -1.732 -1.4999 0.0 0
M  V30 33 C 8.6602 1.4999 0.0 0
M  V30 34 C 9.5262 2.9999 0.0 0
M  V30 35 C 0.866 -4.9999 0.0 0
M  V30 36 C 2.598 -5.0 0.0 0
M  V30 37 O -2.598 -1.9999 0.0 0
M  V30 38 C 0.866 -5.9999 0.0 0
M  V30 39 C 2.598 -6.0 0.0 0
M  V30 40 C -2.598 -2.9999 0.0 0
M  V30 41 C 1.732 -6.4999 0.0 0
M  V30 42 C -3.4641 -3.4999 0.0 0
M  V30 43 C -3.4641 -4.4999 0.0 0
M  V30 44 N -4.2731 -5.0877 0.0 0
M  V30 45 C -2.655 -5.0877 0.0 0
M  V30 46 C -3.9641 -6.0388 0.0 0
M  V30 47 O -2.9641 -6.0388 0.0 0
M  V30 48 C -1.704 -4.7787 0.0 0
M  V30 49 C -4.5518 -6.8478 0.0 0
M  V30 50 C -5.5464 -6.7433 0.0 0
M  V30 51 C -4.1451 -7.7614 0.0 0
M  V30 52 C -6.1341 -7.5523 0.0 0
M  V30 53 C -4.7329 -8.5704 0.0 0
M  V30 54 C -5.7274 -8.4658 0.0 0
M  V30 END ATOM
M  V30 BEGIN BOND
M  V30 1 2 1 2
M  V30 2 1 2 3
M  V30 3 1 2 4
M  V30 4 1 3 5
M  V30 5 2 4 6
M  V30 6 1 4 7
M  V30 7 1 5 8
M  V30 8 1 6 9
M  V30 9 2 7 10
M  V30 10 1 8 11 CFG=1
M  V30 11 1 8 12
M  V30 12 1 9 13
M  V30 13 2 9 14
M  V30 14 1 11 15
M  V30 15 1 12 16
M  V30 16 1 13 17
M  V30 17 2 15 18
M  V30 18 1 15 19
M  V30 19 2 16 20
M  V30 20 1 16 21
M  V30 21 1 17 22
M  V30 22 1 18 23
M  V30 23 1 18 24
M  V30 24 2 19 25
M  V30 25 1 20 26
M  V30 26 2 21 27
M  V30 27 1 22 28
M  V30 28 2 23 29
M  V30 29 1 23 30
M  V30 30 2 24 31
M  V30 31 2 26 32
M  V30 32 1 28 33
M  V30 33 1 28 34
M  V30 34 2 30 35
M  V30 35 1 30 36
M  V30 36 1 32 37
M  V30 37 1 35 38
M  V30 38 2 36 39
M  V30 39 1 37 40
M  V30 40 2 38 41
M  V30 41 1 40 42
M  V30 42 1 42 43
M  V30 43 1 43 44
M  V30 44 2 43 45
M  V30 45 2 44 46
M  V30 46 1 45 47
M  V30 47 1 45 48
M  V30 48 1 46 49
M  V30 49 2 49 50
M  V30 50 1 49 51
M  V30 51 1 50 52
M  V30 52 2 51 53
M  V30 53 2 52 54
M  V30 54 1 10 14
M  V30 55 1 25 31
M  V30 56 1 27 32
M  V30 57 1 39 41
M  V30 58 1 46 47
M  V30 59 1 53 54
M  V30 END BOND
M  V30 BEGIN COLLECTION
M  V30 MDLV30/STEABS ATOMS=(1 8)
M  V30 END COLLECTION
M  V30 END CTAB
M  END
>  <Molecule ChEMBL ID>
CHEMBL267996

>  <Smiles>
Cc1oc(-c2ccccc2)nc1CCOc1ccc(C[C@@H](CNC(=O)c2cccc(OCCN(C)C)c2)Nc2ccccc2C(=O)c2ccccc2)cc1

>  <IC50_nM>
6309.57

>  <Assay Description>
Inhibition of BRL-49653 stimulated human PPARgamma transactivation in CV-1 cells by GAL4 reporter assay

$$$$
CHEMBL1760272
Actelion Java MolfileCreator 2.0

  0  0  0  0  0  0              0 V3000
M  V30 BEGIN CTAB
M  V30 COUNTS 36 38 0 0 0
M  V30 BEGIN ATOM
M  V30 1 Cl -1.299 -7.5 0.0 0
M  V30 2 C 0.0 -6.75 0.0 0
M  V30 3 C 0.0 -5.25 0.0 0
M  V30 4 C 1.299 -7.5 0.0 0
M  V30 5 C 1.299 -4.5 0.0 0
M  V30 6 C 2.598 -6.75 0.0 0
M  V30 7 C 2.598 -5.25 0.0 0
M  V30 8 C 3.8971 -4.5 0.0 0
M  V30 9 C 3.8971 -3.0 0.0 0
M  V30 10 C 5.1961 -5.25 0.0 0
M  V30 11 C 5.1961 -2.25 0.0 0
M  V30 12 C 2.598 -2.25 0.0 0
M  V30 13 C 6.4951 -4.5 0.0 0
M  V30 14 N 5.1961 -0.75 0.0 0
M  V30 15 C 6.4951 -3.0 0.0 0
M  V30 16 S 6.4951 0.0 0.0 0
M  V30 17 C 3.8971 0.0 0.0 0
M  V30 18 O 7.2451 1.299 0.0 0
M  V30 19 O 5.7451 1.299 0.0 0
M  V30 20 C 7.7942 -0.75 0.0 0
M  V30 21 C 2.598 -0.75 0.0 0
M  V30 22 C 9.0932 0.0 0.0 0
M  V30 23 C 7.7942 -2.25 0.0 0
M  V30 24 C 1.299 0.0 0.0 0
M  V30 25 C 10.3923 -0.75 0.0 0
M  V30 26 C 9.0932 1.5 0.0 0
M  V30 27 C 9.0932 -3.0 0.0 0
M  V30 28 C 0.0 -0.75 0.0 0
M  V30 29 C 10.3923 -2.25 0.0 0
M  V30 30 C 11.6913 0.0 0.0 0
M  V30 31 O 11.6913 -3.0 0.0 0
M  V30 32 C 11.6913 -4.5 0.0 0 CFG=2
M  V30 33 C 12.9903 -5.25 0.0 0
M  V30 34 C 10.3923 -5.25 0.0 0
M  V30 35 O 14.2894 -4.5 0.0 0
M  V30 36 O 12.9903 -6.75 0.0 0
M  V30 END ATOM
M  V30 BEGIN BOND
M  V30 1 1 1 2
M  V30 2 2 2 3
M  V30 3 1 2 4
M  V30 4 1 3 5
M  V30 5 2 4 6
M  V30 6 2 5 7
M  V30 7 1 7 8
M  V30 8 2 8 9
M  V30 9 1 8 10
M  V30 10 1 9 11
M  V30 11 1 9 12
M  V30 12 2 10 13
M  V30 13 1 11 14
M  V30 14 2 11 15
M  V30 15 1 14 16
M  V30 16 1 14 17
M  V30 17 2 16 18
M  V30 18 2 16 19
M  V30 19 1 16 20
M  V30 20 1 17 21
M  V30 21 2 20 22
M  V30 22 1 20 23
M  V30 23 1 21 24
M  V30 24 1 22 25
M  V30 25 1 22 26
M  V30 26 2 23 27
M  V30 27 1 24 28
M  V30 28 2 25 29
M  V30 29 1 25 30
M  V30 30 1 29 31
M  V30 31 1 31 32
M  V30 32 1 32 33
M  V30 33 1 32 34 CFG=3
M  V30 34 2 33 35
M  V30 35 1 33 36
M  V30 36 1 6 7
M  V30 37 1 13 15
M  V30 38 1 27 29
M  V30 END BOND
M  V30 BEGIN COLLECTION
M  V30 MDLV30/STEABS ATOMS=(1 32)
M  V30 END COLLECTION
M  V30 END CTAB
M  END
>  <Molecule ChEMBL ID>
CHEMBL1760272

>  <Smiles>
CCCCN(c1cccc(-c2ccc(Cl)cc2)c1C)S(=O)(=O)c1ccc(O[C@@H](C)C(=O)O)c(C)c1C

>  <IC50_nM>
6309.57

>  <Assay Description>
Displacement of [3H]GW 2433 from human PPARgamma by scintillation proximity assay

$$$$
CHEMBL519345
Actelion Java MolfileCreator 2.0

  0  0  0  0  0  0              0 V3000
M  V30 BEGIN CTAB
M  V30 COUNTS 32 35 0 0 0
M  V30 BEGIN ATOM
M  V30 1 S 5.1961 3.75 0.0 0
M  V30 2 O 4.4461 5.049 0.0 0
M  V30 3 O 3.6961 3.7499 0.0 0
M  V30 4 N 6.4951 4.5 0.0 0
M  V30 5 C 5.1961 2.25 0.0 0
M  V30 6 C 7.7942 3.75 0.0 0
M  V30 7 C 6.4951 6.0 0.0 0
M  V30 8 C 3.8971 1.5 0.0 0
M  V30 9 C 6.4951 1.5 0.0 0
M  V30 10 C 9.0932 4.5 0.0 0
M  V30 11 C 7.7942 6.75 0.0 0
M  V30 12 C 3.8971 0.0 0.0 0
M  V30 13 C 6.4951 0.0 0.0 0
M  V30 14 C 9.0932 6.0 0.0 0
M  V30 15 C 10.3923 3.75 0.0 0
M  V30 16 C 2.598 -0.75 0.0 0
M  V30 17 C 5.1961 -0.75 0.0 0
M  V30 18 C 10.3923 6.75 0.0 0
M  V30 19 C 11.6913 4.5 0.0 0
M  V30 20 O 2.598 -2.25 0.0 0
M  V30 21 N 1.299 0.0 0.0 0
M  V30 22 C 11.6913 6.0 0.0 0
M  V30 23 C 0.0 -0.75 0.0 0
M  V30 24 C -1.299 0.0 0.0 0
M  V30 25 C 0.0 -2.25 0.0 0
M  V30 26 C -1.299 1.5 0.0 0
M  V30 27 C -2.598 -0.75 0.0 0
M  V30 28 C -1.299 -3.0 0.0 0
M  V30 29 O 0.0 2.25 0.0 0
M  V30 30 O -2.598 2.25 0.0 0
M  V30 31 C -2.598 -2.25 0.0 0
M  V30 32 F -3.8971 -3.0 0.0 0
M  V30 END ATOM
M  V30 BEGIN BOND
M  V30 1 2 1 2
M  V30 2 2 1 3
M  V30 3 1 1 4
M  V30 4 1 1 5
M  V30 5 1 4 6
M  V30 6 1 4 7
M  V30 7 2 5 8
M  V30 8 1 5 9
M  V30 9 1 6 10
M  V30 10 1 7 11
M  V30 11 1 8 12
M  V30 12 2 9 13
M  V30 13 2 10 14
M  V30 14 1 10 15
M  V30 15 1 12 16
M  V30 16 2 12 17
M  V30 17 1 14 18
M  V30 18 2 15 19
M  V30 19 2 16 20
M  V30 20 1 16 21
M  V30 21 2 18 22
M  V30 22 1 21 23
M  V30 23 2 23 24
M  V30 24 1 23 25
M  V30 25 1 24 26
M  V30 26 1 24 27
M  V30 27 2 25 28
M  V30 28 2 26 29
M  V30 29 1 26 30
M  V30 30 2 27 31
M  V30 31 1 31 32
M  V30 32 1 11 14
M  V30 33 1 13 17
M  V30 34 1 19 22
M  V30 35 1 28 31
M  V30 END BOND
M  V30 END CTAB
M  END
>  <Molecule ChEMBL ID>
CHEMBL519345

>  <Smiles>
O=C(Nc1ccc(F)cc1C(=O)O)c1cccc(S(=O)(=O)N2CCc3ccccc3C2)c1

>  <IC50_nM>
6309.57

>  <Assay Description>
Displacement of radiolabeled ligand from human PPARgamma by competition-binding assay

$$$$
CHEMBL524829
Actelion Java MolfileCreator 2.0

  0  0  0  0  0  0              0 V3000
M  V30 BEGIN CTAB
M  V30 COUNTS 34 37 0 0 0
M  V30 BEGIN ATOM
M  V30 1 Cl 7.7942 2.25 0.0 0
M  V30 2 C 6.4951 1.5 0.0 0
M  V30 3 C 6.4951 0.0 0.0 0
M  V30 4 C 5.1961 2.25 0.0 0
M  V30 5 C 5.1961 -0.75 0.0 0
M  V30 6 C 3.8971 1.5 0.0 0
M  V30 7 C 3.8971 0.0 0.0 0
M  V30 8 C 5.1961 -2.25 0.0 0
M  V30 9 N 2.598 -0.75 0.0 0
M  V30 10 O 6.4951 -3.0 0.0 0
M  V30 11 O 3.8971 -3.0 0.0 0
M  V30 12 C 1.299 0.0 0.0 0
M  V30 13 O 1.299 1.5 0.0 0
M  V30 14 C 0.0 -0.75 0.0 0
M  V30 15 C -1.299 0.0 0.0 0
M  V30 16 C 0.0 -2.25 0.0 0
M  V30 17 C -2.598 -0.75 0.0 0
M  V30 18 C -1.299 -3.0 0.0 0
M  V30 19 S -3.8971 0.0 0.0 0
M  V30 20 C -2.598 -2.25 0.0 0
M  V30 21 O -3.1471 1.299 0.0 0
M  V30 22 O -4.6471 1.299 0.0 0
M  V30 23 N -5.1961 -0.75 0.0 0
M  V30 24 C -6.4951 0.0 0.0 0
M  V30 25 C -5.1961 -2.25 0.0 0
M  V30 26 C -7.7942 -0.75 0.0 0
M  V30 27 C -6.4951 -3.0 0.0 0
M  V30 28 C -7.7942 -2.25 0.0 0
M  V30 29 C -9.0932 0.0 0.0 0
M  V30 30 C -9.0932 -3.0 0.0 0
M  V30 31 C -10.3923 -0.75 0.0 0
M  V30 32 C -10.3923 -2.25 0.0 0
M  V30 33 O -11.6913 -3.0 0.0 0
M  V30 34 C -11.6913 -4.5 0.0 0
M  V30 END ATOM
M  V30 BEGIN BOND
M  V30 1 1 1 2
M  V30 2 2 2 3
M  V30 3 1 2 4
M  V30 4 1 3 5
M  V30 5 2 4 6
M  V30 6 2 5 7
M  V30 7 1 5 8
M  V30 8 1 7 9
M  V30 9 2 8 10
M  V30 10 1 8 11
M  V30 11 1 9 12
M  V30 12 2 12 13
M  V30 13 1 12 14
M  V30 14 2 14 15
M  V30 15 1 14 16
M  V30 16 1 15 17
M  V30 17 2 16 18
M  V30 18 1 17 19
M  V30 19 2 17 20
M  V30 20 2 19 21
M  V30 21 2 19 22
M  V30 22 1 19 23
M  V30 23 1 23 24
M  V30 24 1 23 25
M  V30 25 1 24 26
M  V30 26 1 25 27
M  V30 27 2 26 28
M  V30 28 1 26 29
M  V30 29 1 28 30
M  V30 30 2 29 31
M  V30 31 2 30 32
M  V30 32 1 32 33
M  V30 33 1 33 34
M  V30 34 1 6 7
M  V30 35 1 18 20
M  V30 36 1 27 28
M  V30 37 1 31 32
M  V30 END BOND
M  V30 END CTAB
M  END
>  <Molecule ChEMBL ID>
CHEMBL524829

>  <Smiles>
COc1ccc2c(c1)CCN(S(=O)(=O)c1cccc(C(=O)Nc3ccc(Cl)cc3C(=O)O)c1)C2

>  <IC50_nM>
6309.57

>  <Assay Description>
Displacement of radiolabeled ligand from human PPARgamma by competition-binding assay

$$$$
CHEMBL1760427
Actelion Java MolfileCreator 2.0

  0  0  0  0  0  0              0 V3000
M  V30 BEGIN CTAB
M  V30 COUNTS 37 39 0 0 0
M  V30 BEGIN ATOM
M  V30 1 S 6.4951 0.0 0.0 0
M  V30 2 O 7.2451 1.299 0.0 0
M  V30 3 O 5.7451 1.299 0.0 0
M  V30 4 N 5.1961 -0.75 0.0 0
M  V30 5 C 7.7942 -0.75 0.0 0
M  V30 6 C 5.1961 -2.25 0.0 0
M  V30 7 C 3.8971 0.0 0.0 0
M  V30 8 C 9.0932 0.0 0.0 0
M  V30 9 C 7.7942 -2.25 0.0 0
M  V30 10 C 3.8971 -3.0 0.0 0
M  V30 11 C 6.4951 -3.0 0.0 0
M  V30 12 C 2.598 -0.75 0.0 0
M  V30 13 C 10.3923 -0.75 0.0 0
M  V30 14 C 9.0932 1.5 0.0 0
M  V30 15 C 9.0932 -3.0 0.0 0
M  V30 16 C 3.8971 -4.5 0.0 0
M  V30 17 C 2.598 -2.25 0.0 0
M  V30 18 C 6.4951 -4.5 0.0 0
M  V30 19 C 1.299 0.0 0.0 0
M  V30 20 C 10.3923 -2.25 0.0 0
M  V30 21 C 11.6913 0.0 0.0 0
M  V30 22 C 2.598 -5.25 0.0 0
M  V30 23 C 5.1961 -5.25 0.0 0
M  V30 24 C 0.0 -0.75 0.0 0
M  V30 25 O 11.6913 -3.0 0.0 0
M  V30 26 C 1.299 -4.5 0.0 0
M  V30 27 C 2.598 -6.75 0.0 0
M  V30 28 C 11.6913 -4.5 0.0 0 CFG=2
M  V30 29 C 0.0 -5.25 0.0 0
M  V30 30 C 1.299 -7.5 0.0 0
M  V30 31 C 12.9903 -5.25 0.0 0
M  V30 32 C 10.3923 -5.25 0.0 0
M  V30 33 C 0.0 -6.75 0.0 0
M  V30 34 O 14.2894 -4.5 0.0 0
M  V30 35 O 12.9903 -6.75 0.0 0
M  V30 36 O -1.299 -7.5 0.0 0
M  V30 37 C -1.299 -9.0 0.0 0
M  V30 END ATOM
M  V30 BEGIN BOND
M  V30 1 2 1 2
M  V30 2 2 1 3
M  V30 3 1 1 4
M  V30 4 1 1 5
M  V30 5 1 4 6
M  V30 6 1 4 7
M  V30 7 2 5 8
M  V30 8 1 5 9
M  V30 9 2 6 10
M  V30 10 1 6 11
M  V30 11 1 7 12
M  V30 12 1 8 13
M  V30 13 1 8 14
M  V30 14 2 9 15
M  V30 15 1 10 16
M  V30 16 1 10 17
M  V30 17 2 11 18
M  V30 18 1 12 19
M  V30 19 2 13 20
M  V30 20 1 13 21
M  V30 21 1 16 22
M  V30 22 2 16 23
M  V30 23 1 19 24
M  V30 24 1 20 25
M  V30 25 2 22 26
M  V30 26 1 22 27
M  V30 27 1 25 28
M  V30 28 1 26 29
M  V30 29 2 27 30
M  V30 30 1 28 31
M  V30 31 1 28 32 CFG=3
M  V30 32 2 29 33
M  V30 33 2 31 34
M  V30 34 1 31 35
M  V30 35 1 33 36
M  V30 36 1 36 37
M  V30 37 1 15 20
M  V30 38 1 18 23
M  V30 39 1 30 33
M  V30 END BOND
M  V30 BEGIN COLLECTION
M  V30 MDLV30/STERAC1 ATOMS=(1 28)
M  V30 END COLLECTION
M  V30 END CTAB
M  END
>  <Molecule ChEMBL ID>
CHEMBL1760427

>  <Smiles>
CCCCN(c1cccc(-c2ccc(OC)cc2)c1C)S(=O)(=O)c1ccc(OC(C)C(=O)O)c(C)c1C

>  <IC50_nM>
6309.57

>  <Assay Description>
Displacement of [3H]GW 2433 from human PPARgamma by scintillation proximity assay

$$$$
CHEMBL266742
Actelion Java MolfileCreator 2.0

  0  0  0  0  0  0              0 V3000
M  V30 BEGIN CTAB
M  V30 COUNTS 51 56 0 0 0
M  V30 BEGIN ATOM
M  V30 1 O 12.9903 2.2499 0.0 0
M  V30 2 C 11.6913 1.4999 0.0 0
M  V30 3 C 10.3923 2.2499 0.0 0
M  V30 4 C 11.6913 0.0 0.0 0
M  V30 5 C 9.0932 1.4999 0.0 0
M  V30 6 C 10.3923 3.7499 0.0 0
M  V30 7 C 10.3923 -0.75 0.0 0
M  V30 8 C 12.9903 -0.75 0.0 0
M  V30 9 N 9.0932 0.0 0.0 0
M  V30 10 C 7.7942 2.2499 0.0 0
M  V30 11 C 9.0932 4.5 0.0 0
M  V30 12 C 10.3923 -2.25 0.0 0
M  V30 13 C 12.9903 -2.25 0.0 0
M  V30 14 C 7.7942 -0.75 0.0 0 CFG=2
M  V30 15 C 7.7942 3.75 0.0 0
M  V30 16 C 11.6913 -3.0 0.0 0
M  V30 17 C 6.4951 0.0 0.0 0
M  V30 18 C 7.7942 -2.25 0.0 0
M  V30 19 N 6.4951 1.5 0.0 0
M  V30 20 C 6.4951 -2.9999 0.0 0
M  V30 21 C 5.1961 2.25 0.0 0
M  V30 22 C 6.4951 -4.5 0.0 0
M  V30 23 C 5.1961 -2.2499 0.0 0
M  V30 24 O 3.8971 1.5 0.0 0
M  V30 25 C 5.1961 3.75 0.0 0
M  V30 26 C 5.1961 -5.2499 0.0 0
M  V30 27 C 3.8971 -2.9999 0.0 0
M  V30 28 O 3.8971 4.5 0.0 0
M  V30 29 C 3.8971 -4.4999 0.0 0
M  V30 30 C 3.8971 6.0 0.0 0
M  V30 31 O 2.598 -5.2499 0.0 0
M  V30 32 C 2.598 6.75 0.0 0
M  V30 33 C 5.1961 6.75 0.0 0
M  V30 34 C 1.299 -4.4999 0.0 0
M  V30 35 C 2.598 8.25 0.0 0
M  V30 36 C 5.1961 8.25 0.0 0
M  V30 37 C 0.0 -5.2499 0.0 0
M  V30 38 N 1.299 9.0 0.0 0
M  V30 39 C 3.8971 9.0 0.0 0
M  V30 40 C -1.299 -4.4999 0.0 0
M  V30 41 N -1.4558 -3.0082 0.0 0
M  V30 42 C -2.6693 -5.1101 0.0 0
M  V30 43 C -2.923 -2.6963 0.0 0
M  V30 44 O -3.673 -3.9953 0.0 0
M  V30 45 C -2.9812 -6.5773 0.0 0
M  V30 46 C -3.5331 -1.326 0.0 0
M  V30 47 C -2.6514 -0.1125 0.0 0
M  V30 48 C -5.0249 -1.1692 0.0 0
M  V30 49 C -3.2615 1.2578 0.0 0
M  V30 50 C -5.635 0.201 0.0 0
M  V30 51 C -4.7533 1.4146 0.0 0
M  V30 END ATOM
M  V30 BEGIN BOND
M  V30 1 2 1 2
M  V30 2 1 2 3
M  V30 3 1 2 4
M  V30 4 2 3 5
M  V30 5 1 3 6
M  V30 6 2 4 7
M  V30 7 1 4 8
M  V30 8 1 5 9
M  V30 9 1 5 10
M  V30 10 2 6 11
M  V30 11 1 7 12
M  V30 12 2 8 13
M  V30 13 1 14 9 CFG=1
M  V30 14 2 10 15
M  V30 15 2 12 16
M  V30 16 1 14 17
M  V30 17 1 14 18
M  V30 18 1 17 19
M  V30 19 1 18 20
M  V30 20 1 19 21
M  V30 21 2 20 22
M  V30 22 1 20 23
M  V30 23 2 21 24
M  V30 24 1 21 25
M  V30 25 1 22 26
M  V30 26 2 23 27
M  V30 27 1 25 28
M  V30 28 2 26 29
M  V30 29 1 28 30
M  V30 30 1 29 31
M  V30 31 2 30 32
M  V30 32 1 30 33
M  V30 33 1 31 34
M  V30 34 1 32 35
M  V30 35 2 33 36
M  V30 36 1 34 37
M  V30 37 1 35 38
M  V30 38 2 35 39
M  V30 39 1 37 40
M  V30 40 1 40 41
M  V30 41 2 40 42
M  V30 42 2 41 43
M  V30 43 1 42 44
M  V30 44 1 42 45
M  V30 45 1 43 46
M  V30 46 2 46 47
M  V30 47 1 46 48
M  V30 48 1 47 49
M  V30 49 2 48 50
M  V30 50 2 49 51
M  V30 51 1 11 15
M  V30 52 1 13 16
M  V30 53 1 27 29
M  V30 54 1 36 39
M  V30 55 1 43 44
M  V30 56 1 50 51
M  V30 END BOND
M  V30 BEGIN COLLECTION
M  V30 MDLV30/STEABS ATOMS=(1 14)
M  V30 END COLLECTION
M  V30 END CTAB
M  END
>  <Molecule ChEMBL ID>
CHEMBL266742

>  <Smiles>
Cc1oc(-c2ccccc2)nc1CCOc1ccc(C[C@@H](CNC(=O)COc2cccc(N)c2)Nc2ccccc2C(=O)c2ccccc2)cc1

>  <IC50_nM>
6309.57

>  <Assay Description>
Inhibition of BRL-49653 stimulated human PPARgamma transactivation in CV-1 cells by GAL4 reporter assay

$$$$
CHEMBL1760400
Actelion Java MolfileCreator 2.0

  0  0  0  0  0  0              0 V3000
M  V30 BEGIN CTAB
M  V30 COUNTS 37 39 0 0 0
M  V30 BEGIN ATOM
M  V30 1 Cl 9.0932 1.5 0.0 0
M  V30 2 C 9.0932 0.0 0.0 0
M  V30 3 C 10.3923 -0.75 0.0 0
M  V30 4 C 7.7942 -0.75 0.0 0
M  V30 5 O 11.6913 0.0 0.0 0
M  V30 6 C 10.3923 -2.25 0.0 0
M  V30 7 S 6.4951 0.0 0.0 0
M  V30 8 C 7.7942 -2.25 0.0 0
M  V30 9 C 12.9903 -0.75 0.0 0
M  V30 10 O 11.6913 -3.0 0.0 0
M  V30 11 C 9.0932 -3.0 0.0 0
M  V30 12 O 7.2451 1.299 0.0 0
M  V30 13 O 5.7451 1.299 0.0 0
M  V30 14 N 5.1961 -0.75 0.0 0
M  V30 15 C 11.6913 -4.5 0.0 0 CFG=2
M  V30 16 C 5.1961 -2.25 0.0 0
M  V30 17 C 3.8971 0.0 0.0 0
M  V30 18 C 12.9903 -5.25 0.0 0
M  V30 19 C 10.3923 -5.25 0.0 0
M  V30 20 C 3.8971 -3.0 0.0 0
M  V30 21 C 6.4951 -3.0 0.0 0
M  V30 22 C 2.598 -0.75 0.0 0
M  V30 23 O 14.2894 -4.5 0.0 0
M  V30 24 O 12.9903 -6.75 0.0 0
M  V30 25 C 3.8971 -4.5 0.0 0
M  V30 26 C 2.598 -2.25 0.0 0
M  V30 27 C 6.4951 -4.5 0.0 0
M  V30 28 C 1.299 0.0 0.0 0
M  V30 29 C 2.598 -5.25 0.0 0
M  V30 30 C 5.1961 -5.25 0.0 0
M  V30 31 C 0.0 -0.75 0.0 0
M  V30 32 C 1.299 -4.5 0.0 0
M  V30 33 C 2.598 -6.75 0.0 0
M  V30 34 C 0.0 -5.25 0.0 0
M  V30 35 C 1.299 -7.5 0.0 0
M  V30 36 C 0.0 -6.75 0.0 0
M  V30 37 Cl -1.299 -7.5 0.0 0
M  V30 END ATOM
M  V30 BEGIN BOND
M  V30 1 1 1 2
M  V30 2 2 2 3
M  V30 3 1 2 4
M  V30 4 1 3 5
M  V30 5 1 3 6
M  V30 6 1 4 7
M  V30 7 2 4 8
M  V30 8 1 5 9
M  V30 9 1 6 10
M  V30 10 2 6 11
M  V30 11 2 7 12
M  V30 12 2 7 13
M  V30 13 1 7 14
M  V30 14 1 10 15
M  V30 15 1 14 16
M  V30 16 1 14 17
M  V30 17 1 15 18
M  V30 18 1 15 19 CFG=3
M  V30 19 2 16 20
M  V30 20 1 16 21
M  V30 21 1 17 22
M  V30 22 2 18 23
M  V30 23 1 18 24
M  V30 24 1 20 25
M  V30 25 1 20 26
M  V30 26 2 21 27
M  V30 27 1 22 28
M  V30 28 1 25 29
M  V30 29 2 25 30
M  V30 30 1 28 31
M  V30 31 2 29 32
M  V30 32 1 29 33
M  V30 33 1 32 34
M  V30 34 2 33 35
M  V30 35 2 34 36
M  V30 36 1 36 37
M  V30 37 1 8 11
M  V30 38 1 27 30
M  V30 39 1 35 36
M  V30 END BOND
M  V30 BEGIN COLLECTION
M  V30 MDLV30/STERAC1 ATOMS=(1 15)
M  V30 END COLLECTION
M  V30 END CTAB
M  END
>  <Molecule ChEMBL ID>
CHEMBL1760400

>  <Smiles>
CCCCN(c1cccc(-c2ccc(Cl)cc2)c1C)S(=O)(=O)c1ccc(OC(C)C(=O)O)c(OC)c1Cl

>  <IC50_nM>
6309.57

>  <Assay Description>
Displacement of [3H]GW 2433 from human PPARgamma by scintillation proximity assay

$$$$
CHEMBL1760417
Actelion Java MolfileCreator 2.0

  0  0  0  0  0  0              0 V3000
M  V30 BEGIN CTAB
M  V30 COUNTS 36 38 0 0 0
M  V30 BEGIN ATOM
M  V30 1 Cl 11.6913 -7.5 0.0 0
M  V30 2 C 10.3923 -6.75 0.0 0
M  V30 3 C 10.3923 -5.25 0.0 0
M  V30 4 C 9.0932 -7.5 0.0 0
M  V30 5 C 9.0932 -4.5 0.0 0
M  V30 6 C 7.7942 -6.75 0.0 0
M  V30 7 C 7.7942 -5.25 0.0 0
M  V30 8 C 6.4951 -4.5 0.0 0
M  V30 9 C 6.4951 -3.0 0.0 0
M  V30 10 C 5.1961 -5.25 0.0 0
M  V30 11 C 5.1961 -2.25 0.0 0
M  V30 12 C 3.8971 -4.5 0.0 0
M  V30 13 N 5.1961 -0.75 0.0 0
M  V30 14 C 3.8971 -3.0 0.0 0
M  V30 15 S 6.4951 0.0 0.0 0
M  V30 16 C 3.8971 0.0 0.0 0
M  V30 17 C 2.598 -2.25 0.0 0
M  V30 18 O 7.2451 1.299 0.0 0
M  V30 19 O 5.7451 1.299 0.0 0
M  V30 20 C 7.7942 -0.75 0.0 0
M  V30 21 C 2.598 -0.75 0.0 0
M  V30 22 C 9.0932 0.0 0.0 0
M  V30 23 C 7.7942 -2.25 0.0 0
M  V30 24 C 1.299 0.0 0.0 0
M  V30 25 C 10.3923 -0.75 0.0 0
M  V30 26 C 9.0932 1.5 0.0 0
M  V30 27 C 9.0932 -3.0 0.0 0
M  V30 28 C 0.0 -0.75 0.0 0
M  V30 29 C 10.3923 -2.25 0.0 0
M  V30 30 C 11.6913 0.0 0.0 0
M  V30 31 O 11.6913 -3.0 0.0 0
M  V30 32 C 12.9903 -2.25 0.0 0 CFG=2
M  V30 33 C 14.2894 -3.0 0.0 0
M  V30 34 C 12.9903 -0.75 0.0 0
M  V30 35 O 14.2894 -4.5 0.0 0
M  V30 36 O 15.5884 -2.25 0.0 0
M  V30 END ATOM
M  V30 BEGIN BOND
M  V30 1 1 1 2
M  V30 2 2 2 3
M  V30 3 1 2 4
M  V30 4 1 3 5
M  V30 5 2 4 6
M  V30 6 2 5 7
M  V30 7 1 7 8
M  V30 8 2 8 9
M  V30 9 1 8 10
M  V30 10 1 9 11
M  V30 11 2 10 12
M  V30 12 1 11 13
M  V30 13 2 11 14
M  V30 14 1 13 15
M  V30 15 1 13 16
M  V30 16 1 14 17
M  V30 17 2 15 18
M  V30 18 2 15 19
M  V30 19 1 15 20
M  V30 20 1 16 21
M  V30 21 2 20 22
M  V30 22 1 20 23
M  V30 23 1 21 24
M  V30 24 1 22 25
M  V30 25 1 22 26
M  V30 26 2 23 27
M  V30 27 1 24 28
M  V30 28 2 25 29
M  V30 29 1 25 30
M  V30 30 1 29 31
M  V30 31 1 31 32
M  V30 32 1 32 33
M  V30 33 1 32 34 CFG=1
M  V30 34 2 33 35
M  V30 35 1 33 36
M  V30 36 1 6 7
M  V30 37 1 12 14
M  V30 38 1 27 29
M  V30 END BOND
M  V30 BEGIN COLLECTION
M  V30 MDLV30/STERAC1 ATOMS=(1 32)
M  V30 END COLLECTION
M  V30 END CTAB
M  END
>  <Molecule ChEMBL ID>
CHEMBL1760417

>  <Smiles>
CCCCN(c1cc(-c2ccc(Cl)cc2)ccc1C)S(=O)(=O)c1ccc(OC(C)C(=O)O)c(C)c1C

>  <IC50_nM>
6309.57

>  <Assay Description>
Displacement of [3H]GW 2433 from human PPARgamma by scintillation proximity assay

$$$$
CHEMBL1760401
Actelion Java MolfileCreator 2.0

  0  0  0  0  0  0              0 V3000
M  V30 BEGIN CTAB
M  V30 COUNTS 36 38 0 0 0
M  V30 BEGIN ATOM
M  V30 1 Cl 9.0932 1.5 0.0 0
M  V30 2 C 9.0932 0.0 0.0 0
M  V30 3 C 10.3923 -0.75 0.0 0
M  V30 4 C 7.7942 -0.75 0.0 0
M  V30 5 F 11.6913 0.0 0.0 0
M  V30 6 C 10.3923 -2.25 0.0 0
M  V30 7 S 6.4951 0.0 0.0 0
M  V30 8 C 7.7942 -2.25 0.0 0
M  V30 9 O 11.6913 -3.0 0.0 0
M  V30 10 C 9.0932 -3.0 0.0 0
M  V30 11 O 7.2451 1.299 0.0 0
M  V30 12 O 5.7451 1.299 0.0 0
M  V30 13 N 5.1961 -0.75 0.0 0
M  V30 14 C 11.6913 -4.5 0.0 0 CFG=2
M  V30 15 C 5.1961 -2.25 0.0 0
M  V30 16 C 3.8971 0.0 0.0 0
M  V30 17 C 12.9903 -5.25 0.0 0
M  V30 18 C 10.3923 -5.25 0.0 0
M  V30 19 C 3.8971 -3.0 0.0 0
M  V30 20 C 6.4951 -3.0 0.0 0
M  V30 21 C 2.598 -0.75 0.0 0
M  V30 22 O 14.2894 -4.5 0.0 0
M  V30 23 O 12.9903 -6.75 0.0 0
M  V30 24 C 3.8971 -4.5 0.0 0
M  V30 25 C 2.598 -2.25 0.0 0
M  V30 26 C 6.4951 -4.5 0.0 0
M  V30 27 C 1.299 0.0 0.0 0
M  V30 28 C 2.598 -5.25 0.0 0
M  V30 29 C 5.1961 -5.25 0.0 0
M  V30 30 C 0.0 -0.75 0.0 0
M  V30 31 C 1.299 -4.5 0.0 0
M  V30 32 C 2.598 -6.75 0.0 0
M  V30 33 C 0.0 -5.25 0.0 0
M  V30 34 C 1.299 -7.5 0.0 0
M  V30 35 C 0.0 -6.75 0.0 0
M  V30 36 Cl -1.299 -7.5 0.0 0
M  V30 END ATOM
M  V30 BEGIN BOND
M  V30 1 1 1 2
M  V30 2 2 2 3
M  V30 3 1 2 4
M  V30 4 1 3 5
M  V30 5 1 3 6
M  V30 6 1 4 7
M  V30 7 2 4 8
M  V30 8 1 6 9
M  V30 9 2 6 10
M  V30 10 2 7 11
M  V30 11 2 7 12
M  V30 12 1 7 13
M  V30 13 1 9 14
M  V30 14 1 13 15
M  V30 15 1 13 16
M  V30 16 1 14 17
M  V30 17 1 14 18 CFG=3
M  V30 18 2 15 19
M  V30 19 1 15 20
M  V30 20 1 16 21
M  V30 21 2 17 22
M  V30 22 1 17 23
M  V30 23 1 19 24
M  V30 24 1 19 25
M  V30 25 2 20 26
M  V30 26 1 21 27
M  V30 27 1 24 28
M  V30 28 2 24 29
M  V30 29 1 27 30
M  V30 30 2 28 31
M  V30 31 1 28 32
M  V30 32 1 31 33
M  V30 33 2 32 34
M  V30 34 2 33 35
M  V30 35 1 35 36
M  V30 36 1 8 10
M  V30 37 1 26 29
M  V30 38 1 34 35
M  V30 END BOND
M  V30 BEGIN COLLECTION
M  V30 MDLV30/STERAC1 ATOMS=(1 14)
M  V30 END COLLECTION
M  V30 END CTAB
M  END
>  <Molecule ChEMBL ID>
CHEMBL1760401

>  <Smiles>
CCCCN(c1cccc(-c2ccc(Cl)cc2)c1C)S(=O)(=O)c1ccc(OC(C)C(=O)O)c(F)c1Cl

>  <IC50_nM>
6309.57

>  <Assay Description>
Displacement of [3H]GW 2433 from human PPARgamma by scintillation proximity assay

$$$$
CHEMBL1760273
Actelion Java MolfileCreator 2.0

  0  0  0  0  0  0              0 V3000
M  V30 BEGIN CTAB
M  V30 COUNTS 36 38 0 0 0
M  V30 BEGIN ATOM
M  V30 1 Cl -1.299 -7.5 0.0 0
M  V30 2 C 0.0 -6.75 0.0 0
M  V30 3 C 0.0 -5.25 0.0 0
M  V30 4 C 1.299 -7.5 0.0 0
M  V30 5 C 1.299 -4.5 0.0 0
M  V30 6 C 2.598 -6.75 0.0 0
M  V30 7 C 2.598 -5.25 0.0 0
M  V30 8 C 3.8971 -4.5 0.0 0
M  V30 9 C 3.8971 -3.0 0.0 0
M  V30 10 C 5.1961 -5.25 0.0 0
M  V30 11 C 5.1961 -2.25 0.0 0
M  V30 12 C 2.598 -2.25 0.0 0
M  V30 13 C 6.4951 -4.5 0.0 0
M  V30 14 N 5.1961 -0.75 0.0 0
M  V30 15 C 6.4951 -3.0 0.0 0
M  V30 16 S 6.4951 0.0 0.0 0
M  V30 17 C 3.8971 0.0 0.0 0
M  V30 18 O 7.2451 1.299 0.0 0
M  V30 19 O 5.7451 1.299 0.0 0
M  V30 20 C 7.7942 -0.75 0.0 0
M  V30 21 C 2.598 -0.75 0.0 0
M  V30 22 C 9.0932 0.0 0.0 0
M  V30 23 C 7.7942 -2.25 0.0 0
M  V30 24 C 1.299 0.0 0.0 0
M  V30 25 C 10.3923 -0.75 0.0 0
M  V30 26 C 9.0932 1.5 0.0 0
M  V30 27 C 9.0932 -3.0 0.0 0
M  V30 28 C 0.0 -0.75 0.0 0
M  V30 29 C 10.3923 -2.25 0.0 0
M  V30 30 C 11.6913 0.0 0.0 0
M  V30 31 O 11.6913 -3.0 0.0 0
M  V30 32 C 11.6913 -4.5 0.0 0 CFG=1
M  V30 33 C 12.9903 -5.25 0.0 0
M  V30 34 C 10.3923 -5.25 0.0 0
M  V30 35 O 14.2894 -4.5 0.0 0
M  V30 36 O 12.9903 -6.75 0.0 0
M  V30 END ATOM
M  V30 BEGIN BOND
M  V30 1 1 1 2
M  V30 2 2 2 3
M  V30 3 1 2 4
M  V30 4 1 3 5
M  V30 5 2 4 6
M  V30 6 2 5 7
M  V30 7 1 7 8
M  V30 8 2 8 9
M  V30 9 1 8 10
M  V30 10 1 9 11
M  V30 11 1 9 12
M  V30 12 2 10 13
M  V30 13 1 11 14
M  V30 14 2 11 15
M  V30 15 1 14 16
M  V30 16 1 14 17
M  V30 17 2 16 18
M  V30 18 2 16 19
M  V30 19 1 16 20
M  V30 20 1 17 21
M  V30 21 2 20 22
M  V30 22 1 20 23
M  V30 23 1 21 24
M  V30 24 1 22 25
M  V30 25 1 22 26
M  V30 26 2 23 27
M  V30 27 1 24 28
M  V30 28 2 25 29
M  V30 29 1 25 30
M  V30 30 1 29 31
M  V30 31 1 31 32
M  V30 32 1 32 33
M  V30 33 1 32 34 CFG=1
M  V30 34 2 33 35
M  V30 35 1 33 36
M  V30 36 1 6 7
M  V30 37 1 13 15
M  V30 38 1 27 29
M  V30 END BOND
M  V30 BEGIN COLLECTION
M  V30 MDLV30/STEABS ATOMS=(1 32)
M  V30 END COLLECTION
M  V30 END CTAB
M  END
>  <Molecule ChEMBL ID>
CHEMBL1760273

>  <Smiles>
CCCCN(c1cccc(-c2ccc(Cl)cc2)c1C)S(=O)(=O)c1ccc(O[C@H](C)C(=O)O)c(C)c1C

>  <IC50_nM>
6309.57

>  <Assay Description>
Displacement of [3H]GW 2433 from human PPARgamma by scintillation proximity assay

$$$$
CHEMBL1760005
Actelion Java MolfileCreator 2.0

  0  0  0  0  0  0              0 V3000
M  V30 BEGIN CTAB
M  V30 COUNTS 40 42 0 0 0
M  V30 BEGIN ATOM
M  V30 1 Cl 2.598 -2.25 0.0 0
M  V30 2 C 3.8971 -3.0 0.0 0
M  V30 3 C 5.1961 -2.25 0.0 0
M  V30 4 C 3.8971 -4.5 0.0 0
M  V30 5 N 5.1961 -0.75 0.0 0
M  V30 6 C 6.4951 -3.0 0.0 0
M  V30 7 C 2.598 -5.25 0.0 0
M  V30 8 C 5.1961 -5.25 0.0 0
M  V30 9 S 6.4951 0.0 0.0 0
M  V30 10 C 3.8971 0.0 0.0 0
M  V30 11 C 6.4951 -4.5 0.0 0
M  V30 12 C 2.598 -6.75 0.0 0
M  V30 13 C 1.299 -4.5 0.0 0
M  V30 14 O 7.2451 1.299 0.0 0
M  V30 15 O 5.7451 1.299 0.0 0
M  V30 16 C 7.7942 -0.75 0.0 0
M  V30 17 C 2.598 -0.75 0.0 0
M  V30 18 C 1.299 -7.5 0.0 0
M  V30 19 C 0.0 -5.25 0.0 0
M  V30 20 C 9.0932 0.0 0.0 0
M  V30 21 C 7.7942 -2.25 0.0 0
M  V30 22 C 1.299 0.0 0.0 0
M  V30 23 C 0.0 -6.75 0.0 0
M  V30 24 C 10.3923 -0.75 0.0 0
M  V30 25 C 9.0932 1.5 0.0 0
M  V30 26 C 9.0932 -3.0 0.0 0
M  V30 27 C 0.0 -0.75 0.0 0
M  V30 28 O -1.299 -7.5 0.0 0
M  V30 29 C 10.3923 -2.25 0.0 0
M  V30 30 C 11.6913 0.0 0.0 0
M  V30 31 C -2.598 -6.75 0.0 0
M  V30 32 O 11.6913 -3.0 0.0 0
M  V30 33 F -1.848 -5.4509 0.0 0
M  V30 34 F -3.8971 -6.0 0.0 0
M  V30 35 F -3.348 -8.049 0.0 0
M  V30 36 C 11.6913 -4.5 0.0 0 CFG=2
M  V30 37 C 12.9903 -5.25 0.0 0
M  V30 38 C 10.3923 -5.25 0.0 0
M  V30 39 O 14.2894 -4.5 0.0 0
M  V30 40 O 12.9903 -6.75 0.0 0
M  V30 END ATOM
M  V30 BEGIN BOND
M  V30 1 1 1 2
M  V30 2 2 2 3
M  V30 3 1 2 4
M  V30 4 1 3 5
M  V30 5 1 3 6
M  V30 6 1 4 7
M  V30 7 2 4 8
M  V30 8 1 5 9
M  V30 9 1 5 10
M  V30 10 2 6 11
M  V30 11 2 7 12
M  V30 12 1 7 13
M  V30 13 2 9 14
M  V30 14 2 9 15
M  V30 15 1 9 16
M  V30 16 1 10 17
M  V30 17 1 12 18
M  V30 18 2 13 19
M  V30 19 2 16 20
M  V30 20 1 16 21
M  V30 21 1 17 22
M  V30 22 2 18 23
M  V30 23 1 20 24
M  V30 24 1 20 25
M  V30 25 2 21 26
M  V30 26 1 22 27
M  V30 27 1 23 28
M  V30 28 2 24 29
M  V30 29 1 24 30
M  V30 30 1 28 31
M  V30 31 1 29 32
M  V30 32 1 31 33
M  V30 33 1 31 34
M  V30 34 1 31 35
M  V30 35 1 32 36
M  V30 36 1 36 37
M  V30 37 1 36 38 CFG=3
M  V30 38 2 37 39
M  V30 39 1 37 40
M  V30 40 1 8 11
M  V30 41 1 19 23
M  V30 42 1 26 29
M  V30 END BOND
M  V30 BEGIN COLLECTION
M  V30 MDLV30/STERAC1 ATOMS=(1 36)
M  V30 END COLLECTION
M  V30 END CTAB
M  END
>  <Molecule ChEMBL ID>
CHEMBL1760005

>  <Smiles>
CCCCN(c1cccc(-c2ccc(OC(F)(F)F)cc2)c1Cl)S(=O)(=O)c1ccc(OC(C)C(=O)O)c(C)c1C

>  <IC50_nM>
6309.57

>  <Assay Description>
Displacement of [3H]GW 2433 from human PPARgamma by scintillation proximity assay

$$$$
CHEMBL1760424
Actelion Java MolfileCreator 2.0

  0  0  0  0  0  0              0 V3000
M  V30 BEGIN CTAB
M  V30 COUNTS 39 41 0 0 0
M  V30 BEGIN ATOM
M  V30 1 S 6.4951 0.0 0.0 0
M  V30 2 O 7.2451 1.299 0.0 0
M  V30 3 O 5.7451 1.299 0.0 0
M  V30 4 N 5.1961 -0.75 0.0 0
M  V30 5 C 7.7942 -0.75 0.0 0
M  V30 6 C 5.1961 -2.25 0.0 0
M  V30 7 C 3.8971 0.0 0.0 0
M  V30 8 C 9.0932 0.0 0.0 0
M  V30 9 C 7.7942 -2.25 0.0 0
M  V30 10 C 3.8971 -3.0 0.0 0
M  V30 11 C 6.4951 -3.0 0.0 0
M  V30 12 C 2.598 -0.75 0.0 0
M  V30 13 C 10.3923 -0.75 0.0 0
M  V30 14 C 9.0932 1.5 0.0 0
M  V30 15 C 9.0932 -3.0 0.0 0
M  V30 16 C 3.8971 -4.5 0.0 0
M  V30 17 C 2.598 -2.25 0.0 0
M  V30 18 C 6.4951 -4.5 0.0 0
M  V30 19 C 1.299 0.0 0.0 0
M  V30 20 C 10.3923 -2.25 0.0 0
M  V30 21 C 11.6913 0.0 0.0 0
M  V30 22 C 2.598 -5.25 0.0 0
M  V30 23 C 5.1961 -5.25 0.0 0
M  V30 24 C 0.0 -0.75 0.0 0
M  V30 25 O 11.6913 -3.0 0.0 0
M  V30 26 C 1.299 -4.5 0.0 0
M  V30 27 C 2.598 -6.75 0.0 0
M  V30 28 C 11.6913 -4.5 0.0 0 CFG=2
M  V30 29 C 0.0 -5.25 0.0 0
M  V30 30 C 1.299 -7.5 0.0 0
M  V30 31 C 12.9903 -5.25 0.0 0
M  V30 32 C 10.3923 -5.25 0.0 0
M  V30 33 C 0.0 -6.75 0.0 0
M  V30 34 O 14.2894 -4.5 0.0 0
M  V30 35 O 12.9903 -6.75 0.0 0
M  V30 36 C -1.299 -7.5 0.0 0
M  V30 37 F -0.549 -8.799 0.0 0
M  V30 38 F -2.598 -8.25 0.0 0
M  V30 39 F -2.049 -6.2009 0.0 0
M  V30 END ATOM
M  V30 BEGIN BOND
M  V30 1 2 1 2
M  V30 2 2 1 3
M  V30 3 1 1 4
M  V30 4 1 1 5
M  V30 5 1 4 6
M  V30 6 1 4 7
M  V30 7 2 5 8
M  V30 8 1 5 9
M  V30 9 2 6 10
M  V30 10 1 6 11
M  V30 11 1 7 12
M  V30 12 1 8 13
M  V30 13 1 8 14
M  V30 14 2 9 15
M  V30 15 1 10 16
M  V30 16 1 10 17
M  V30 17 2 11 18
M  V30 18 1 12 19
M  V30 19 2 13 20
M  V30 20 1 13 21
M  V30 21 1 16 22
M  V30 22 2 16 23
M  V30 23 1 19 24
M  V30 24 1 20 25
M  V30 25 2 22 26
M  V30 26 1 22 27
M  V30 27 1 25 28
M  V30 28 1 26 29
M  V30 29 2 27 30
M  V30 30 1 28 31
M  V30 31 1 28 32 CFG=3
M  V30 32 2 29 33
M  V30 33 2 31 34
M  V30 34 1 31 35
M  V30 35 1 33 36
M  V30 36 1 36 37
M  V30 37 1 36 38
M  V30 38 1 36 39
M  V30 39 1 15 20
M  V30 40 1 18 23
M  V30 41 1 30 33
M  V30 END BOND
M  V30 BEGIN COLLECTION
M  V30 MDLV30/STERAC1 ATOMS=(1 28)
M  V30 END COLLECTION
M  V30 END CTAB
M  END
>  <Molecule ChEMBL ID>
CHEMBL1760424

>  <Smiles>
CCCCN(c1cccc(-c2ccc(C(F)(F)F)cc2)c1C)S(=O)(=O)c1ccc(OC(C)C(=O)O)c(C)c1C

>  <IC50_nM>
6309.57

>  <Assay Description>
Displacement of [3H]GW 2433 from human PPARgamma by scintillation proximity assay

$$$$
CHEMBL1760428
Actelion Java MolfileCreator 2.0

  0  0  0  0  0  0              0 V3000
M  V30 BEGIN CTAB
M  V30 COUNTS 39 41 0 0 0
M  V30 BEGIN ATOM
M  V30 1 Cl 2.598 -2.25 0.0 0
M  V30 2 C 3.8971 -3.0 0.0 0
M  V30 3 C 5.1961 -2.25 0.0 0
M  V30 4 C 3.8971 -4.5 0.0 0
M  V30 5 N 5.1961 -0.75 0.0 0
M  V30 6 C 6.4951 -3.0 0.0 0
M  V30 7 C 2.598 -5.25 0.0 0
M  V30 8 C 5.1961 -5.25 0.0 0
M  V30 9 S 6.4951 0.0 0.0 0
M  V30 10 C 3.8971 0.0 0.0 0
M  V30 11 C 6.4951 -4.5 0.0 0
M  V30 12 C 2.598 -6.75 0.0 0
M  V30 13 C 1.299 -4.5 0.0 0
M  V30 14 O 7.2451 1.299 0.0 0
M  V30 15 O 5.7451 1.299 0.0 0
M  V30 16 C 7.7942 -0.75 0.0 0
M  V30 17 C 2.598 -0.75 0.0 0
M  V30 18 C 1.299 -7.5 0.0 0
M  V30 19 C 0.0 -5.25 0.0 0
M  V30 20 C 9.0932 0.0 0.0 0
M  V30 21 C 7.7942 -2.25 0.0 0
M  V30 22 C 1.299 0.0 0.0 0
M  V30 23 C 0.0 -6.75 0.0 0
M  V30 24 C 10.3923 -0.75 0.0 0
M  V30 25 C 9.0932 1.5 0.0 0
M  V30 26 C 9.0932 -3.0 0.0 0
M  V30 27 C 0.0 -0.75 0.0 0
M  V30 28 C -1.299 -7.5 0.0 0
M  V30 29 C 10.3923 -2.25 0.0 0
M  V30 30 C 11.6913 0.0 0.0 0
M  V30 31 F -2.049 -6.2009 0.0 0
M  V30 32 F -2.598 -8.25 0.0 0
M  V30 33 F -0.549 -8.799 0.0 0
M  V30 34 O 11.6913 -3.0 0.0 0
M  V30 35 C 11.6913 -4.5 0.0 0 CFG=2
M  V30 36 C 12.9903 -5.25 0.0 0
M  V30 37 C 10.3923 -5.25 0.0 0
M  V30 38 O 14.2894 -4.5 0.0 0
M  V30 39 O 12.9903 -6.75 0.0 0
M  V30 END ATOM
M  V30 BEGIN BOND
M  V30 1 1 1 2
M  V30 2 2 2 3
M  V30 3 1 2 4
M  V30 4 1 3 5
M  V30 5 1 3 6
M  V30 6 1 4 7
M  V30 7 2 4 8
M  V30 8 1 5 9
M  V30 9 1 5 10
M  V30 10 2 6 11
M  V30 11 2 7 12
M  V30 12 1 7 13
M  V30 13 2 9 14
M  V30 14 2 9 15
M  V30 15 1 9 16
M  V30 16 1 10 17
M  V30 17 1 12 18
M  V30 18 2 13 19
M  V30 19 2 16 20
M  V30 20 1 16 21
M  V30 21 1 17 22
M  V30 22 2 18 23
M  V30 23 1 20 24
M  V30 24 1 20 25
M  V30 25 2 21 26
M  V30 26 1 22 27
M  V30 27 1 23 28
M  V30 28 2 24 29
M  V30 29 1 24 30
M  V30 30 1 28 31
M  V30 31 1 28 32
M  V30 32 1 28 33
M  V30 33 1 29 34
M  V30 34 1 34 35
M  V30 35 1 35 36
M  V30 36 1 35 37 CFG=3
M  V30 37 2 36 38
M  V30 38 1 36 39
M  V30 39 1 8 11
M  V30 40 1 19 23
M  V30 41 1 26 29
M  V30 END BOND
M  V30 BEGIN COLLECTION
M  V30 MDLV30/STERAC1 ATOMS=(1 35)
M  V30 END COLLECTION
M  V30 END CTAB
M  END
>  <Molecule ChEMBL ID>
CHEMBL1760428

>  <Smiles>
CCCCN(c1cccc(-c2ccc(C(F)(F)F)cc2)c1Cl)S(=O)(=O)c1ccc(OC(C)C(=O)O)c(C)c1C

>  <IC50_nM>
6309.57

>  <Assay Description>
Displacement of [3H]GW 2433 from human PPARgamma by scintillation proximity assay

$$$$
CHEMBL524829
Actelion Java MolfileCreator 2.0

  0  0  0  0  0  0              0 V3000
M  V30 BEGIN CTAB
M  V30 COUNTS 34 37 0 0 0
M  V30 BEGIN ATOM
M  V30 1 Cl 7.7942 2.25 0.0 0
M  V30 2 C 6.4951 1.5 0.0 0
M  V30 3 C 6.4951 0.0 0.0 0
M  V30 4 C 5.1961 2.25 0.0 0
M  V30 5 C 5.1961 -0.75 0.0 0
M  V30 6 C 3.8971 1.5 0.0 0
M  V30 7 C 3.8971 0.0 0.0 0
M  V30 8 C 5.1961 -2.25 0.0 0
M  V30 9 N 2.598 -0.75 0.0 0
M  V30 10 O 6.4951 -3.0 0.0 0
M  V30 11 O 3.8971 -3.0 0.0 0
M  V30 12 C 1.299 0.0 0.0 0
M  V30 13 O 1.299 1.5 0.0 0
M  V30 14 C 0.0 -0.75 0.0 0
M  V30 15 C -1.299 0.0 0.0 0
M  V30 16 C 0.0 -2.25 0.0 0
M  V30 17 C -2.598 -0.75 0.0 0
M  V30 18 C -1.299 -3.0 0.0 0
M  V30 19 S -3.8971 0.0 0.0 0
M  V30 20 C -2.598 -2.25 0.0 0
M  V30 21 O -3.1471 1.299 0.0 0
M  V30 22 O -4.6471 1.299 0.0 0
M  V30 23 N -5.1961 -0.75 0.0 0
M  V30 24 C -6.4951 0.0 0.0 0
M  V30 25 C -5.1961 -2.25 0.0 0
M  V30 26 C -7.7942 -0.75 0.0 0
M  V30 27 C -6.4951 -3.0 0.0 0
M  V30 28 C -7.7942 -2.25 0.0 0
M  V30 29 C -9.0932 0.0 0.0 0
M  V30 30 C -9.0932 -3.0 0.0 0
M  V30 31 C -10.3923 -0.75 0.0 0
M  V30 32 C -10.3923 -2.25 0.0 0
M  V30 33 O -11.6913 -3.0 0.0 0
M  V30 34 C -11.6913 -4.5 0.0 0
M  V30 END ATOM
M  V30 BEGIN BOND
M  V30 1 1 1 2
M  V30 2 2 2 3
M  V30 3 1 2 4
M  V30 4 1 3 5
M  V30 5 2 4 6
M  V30 6 2 5 7
M  V30 7 1 5 8
M  V30 8 1 7 9
M  V30 9 2 8 10
M  V30 10 1 8 11
M  V30 11 1 9 12
M  V30 12 2 12 13
M  V30 13 1 12 14
M  V30 14 2 14 15
M  V30 15 1 14 16
M  V30 16 1 15 17
M  V30 17 2 16 18
M  V30 18 1 17 19
M  V30 19 2 17 20
M  V30 20 2 19 21
M  V30 21 2 19 22
M  V30 22 1 19 23
M  V30 23 1 23 24
M  V30 24 1 23 25
M  V30 25 1 24 26
M  V30 26 1 25 27
M  V30 27 2 26 28
M  V30 28 1 26 29
M  V30 29 1 28 30
M  V30 30 2 29 31
M  V30 31 2 30 32
M  V30 32 1 32 33
M  V30 33 1 33 34
M  V30 34 1 6 7
M  V30 35 1 18 20
M  V30 36 1 27 28
M  V30 37 1 31 32
M  V30 END BOND
M  V30 END CTAB
M  END
>  <Molecule ChEMBL ID>
CHEMBL524829

>  <Smiles>
COc1ccc2c(c1)CCN(S(=O)(=O)c1cccc(C(=O)Nc3ccc(Cl)cc3C(=O)O)c1)C2

>  <IC50_nM>
6309.57

>  <Assay Description>
Agonist activity at PPARgamma

$$$$
CHEMBL38943
Actelion Java MolfileCreator 2.0

  0  0  0  0  0  0              0 V3000
M  V30 BEGIN CTAB
M  V30 COUNTS 30 32 0 0 0
M  V30 BEGIN ATOM
M  V30 1 S 10.549 -6.7417 0.0 0
M  V30 2 C 12.0163 -7.0536 0.0 0
M  V30 3 C 10.3923 -5.25 0.0 0
M  V30 4 N 12.7663 -5.7546 0.0 0
M  V30 5 C 12.6264 -8.4239 0.0 0
M  V30 6 C 11.7626 -4.6398 0.0 0
M  V30 7 C 9.0932 -4.5 0.0 0
M  V30 8 C 11.7447 -9.6374 0.0 0
M  V30 9 C 14.1182 -8.5807 0.0 0
M  V30 10 C 12.0744 -3.1726 0.0 0
M  V30 11 S 9.0932 -3.0 0.0 0
M  V30 12 C 12.3548 -11.0078 0.0 0
M  V30 13 C 14.7283 -9.951 0.0 0
M  V30 14 C 7.7942 -2.25 0.0 0
M  V30 15 C 13.8466 -11.1646 0.0 0
M  V30 16 C 7.7942 -0.75 0.0 0
M  V30 17 C 6.4951 -2.9999 0.0 0
M  V30 18 C 14.4567 -12.5349 0.0 0
M  V30 19 C 6.4951 0.0 0.0 0
M  V30 20 C 5.1961 -2.25 0.0 0
M  V30 21 F 15.827 -11.9248 0.0 0
M  V30 22 F 15.0668 -13.9052 0.0 0
M  V30 23 F 13.0864 -13.145 0.0 0
M  V30 24 C 5.1961 -0.75 0.0 0
M  V30 25 C 6.4951 1.5 0.0 0
M  V30 26 O 3.8971 0.0 0.0 0
M  V30 27 C 2.598 -0.75 0.0 0
M  V30 28 C 1.299 0.0 0.0 0
M  V30 29 O 1.299 1.5 0.0 0
M  V30 30 O 0.0 -0.75 0.0 0
M  V30 END ATOM
M  V30 BEGIN BOND
M  V30 1 1 1 2
M  V30 2 1 1 3
M  V30 3 2 2 4
M  V30 4 1 2 5
M  V30 5 2 3 6
M  V30 6 1 3 7
M  V30 7 2 5 8
M  V30 8 1 5 9
M  V30 9 1 6 10
M  V30 10 1 7 11
M  V30 11 1 8 12
M  V30 12 2 9 13
M  V30 13 1 11 14
M  V30 14 2 12 15
M  V30 15 2 14 16
M  V30 16 1 14 17
M  V30 17 1 15 18
M  V30 18 1 16 19
M  V30 19 2 17 20
M  V30 20 1 18 21
M  V30 21 1 18 22
M  V30 22 1 18 23
M  V30 23 2 19 24
M  V30 24 1 19 25
M  V30 25 1 24 26
M  V30 26 1 26 27
M  V30 27 1 27 28
M  V30 28 2 28 29
M  V30 29 1 28 30
M  V30 30 1 4 6
M  V30 31 1 13 15
M  V30 32 1 20 24
M  V30 END BOND
M  V30 END CTAB
M  END
>  <Molecule ChEMBL ID>
CHEMBL38943

>  <Smiles>
Cc1cc(SCc2sc(-c3ccc(C(F)(F)F)cc3)nc2C)ccc1OCC(=O)O

>  <IC50_nM>
6309.57

>  <Assay Description>
Displacement of radiolabeled ligand from human PPARgamma by competition-binding assay

$$$$
CHEMBL38943
Actelion Java MolfileCreator 2.0

  0  0  0  0  0  0              0 V3000
M  V30 BEGIN CTAB
M  V30 COUNTS 30 32 0 0 0
M  V30 BEGIN ATOM
M  V30 1 S 10.549 -6.7417 0.0 0
M  V30 2 C 12.0163 -7.0536 0.0 0
M  V30 3 C 10.3923 -5.25 0.0 0
M  V30 4 N 12.7663 -5.7546 0.0 0
M  V30 5 C 12.6264 -8.4239 0.0 0
M  V30 6 C 11.7626 -4.6398 0.0 0
M  V30 7 C 9.0932 -4.5 0.0 0
M  V30 8 C 11.7447 -9.6374 0.0 0
M  V30 9 C 14.1182 -8.5807 0.0 0
M  V30 10 C 12.0744 -3.1726 0.0 0
M  V30 11 S 9.0932 -3.0 0.0 0
M  V30 12 C 12.3548 -11.0078 0.0 0
M  V30 13 C 14.7283 -9.951 0.0 0
M  V30 14 C 7.7942 -2.25 0.0 0
M  V30 15 C 13.8466 -11.1646 0.0 0
M  V30 16 C 7.7942 -0.75 0.0 0
M  V30 17 C 6.4951 -2.9999 0.0 0
M  V30 18 C 14.4567 -12.5349 0.0 0
M  V30 19 C 6.4951 0.0 0.0 0
M  V30 20 C 5.1961 -2.25 0.0 0
M  V30 21 F 15.827 -11.9248 0.0 0
M  V30 22 F 15.0668 -13.9052 0.0 0
M  V30 23 F 13.0864 -13.145 0.0 0
M  V30 24 C 5.1961 -0.75 0.0 0
M  V30 25 C 6.4951 1.5 0.0 0
M  V30 26 O 3.8971 0.0 0.0 0
M  V30 27 C 2.598 -0.75 0.0 0
M  V30 28 C 1.299 0.0 0.0 0
M  V30 29 O 1.299 1.5 0.0 0
M  V30 30 O 0.0 -0.75 0.0 0
M  V30 END ATOM
M  V30 BEGIN BOND
M  V30 1 1 1 2
M  V30 2 1 1 3
M  V30 3 2 2 4
M  V30 4 1 2 5
M  V30 5 2 3 6
M  V30 6 1 3 7
M  V30 7 2 5 8
M  V30 8 1 5 9
M  V30 9 1 6 10
M  V30 10 1 7 11
M  V30 11 1 8 12
M  V30 12 2 9 13
M  V30 13 1 11 14
M  V30 14 2 12 15
M  V30 15 2 14 16
M  V30 16 1 14 17
M  V30 17 1 15 18
M  V30 18 1 16 19
M  V30 19 2 17 20
M  V30 20 1 18 21
M  V30 21 1 18 22
M  V30 22 1 18 23
M  V30 23 2 19 24
M  V30 24 1 19 25
M  V30 25 1 24 26
M  V30 26 1 26 27
M  V30 27 1 27 28
M  V30 28 2 28 29
M  V30 29 1 28 30
M  V30 30 1 4 6
M  V30 31 1 13 15
M  V30 32 1 20 24
M  V30 END BOND
M  V30 END CTAB
M  END
>  <Molecule ChEMBL ID>
CHEMBL38943

>  <Smiles>
Cc1cc(SCc2sc(-c3ccc(C(F)(F)F)cc3)nc2C)ccc1OCC(=O)O

>  <IC50_nM>
6309.57

>  <Assay Description>
Agonist activity at PPARgamma

$$$$
CHEMBL38943
Actelion Java MolfileCreator 2.0

  0  0  0  0  0  0              0 V3000
M  V30 BEGIN CTAB
M  V30 COUNTS 30 32 0 0 0
M  V30 BEGIN ATOM
M  V30 1 S 10.549 -6.7417 0.0 0
M  V30 2 C 12.0163 -7.0536 0.0 0
M  V30 3 C 10.3923 -5.25 0.0 0
M  V30 4 N 12.7663 -5.7546 0.0 0
M  V30 5 C 12.6264 -8.4239 0.0 0
M  V30 6 C 11.7626 -4.6398 0.0 0
M  V30 7 C 9.0932 -4.5 0.0 0
M  V30 8 C 11.7447 -9.6374 0.0 0
M  V30 9 C 14.1182 -8.5807 0.0 0
M  V30 10 C 12.0744 -3.1726 0.0 0
M  V30 11 S 9.0932 -3.0 0.0 0
M  V30 12 C 12.3548 -11.0078 0.0 0
M  V30 13 C 14.7283 -9.951 0.0 0
M  V30 14 C 7.7942 -2.25 0.0 0
M  V30 15 C 13.8466 -11.1646 0.0 0
M  V30 16 C 7.7942 -0.75 0.0 0
M  V30 17 C 6.4951 -2.9999 0.0 0
M  V30 18 C 14.4567 -12.5349 0.0 0
M  V30 19 C 6.4951 0.0 0.0 0
M  V30 20 C 5.1961 -2.25 0.0 0
M  V30 21 F 15.827 -11.9248 0.0 0
M  V30 22 F 15.0668 -13.9052 0.0 0
M  V30 23 F 13.0864 -13.145 0.0 0
M  V30 24 C 5.1961 -0.75 0.0 0
M  V30 25 C 6.4951 1.5 0.0 0
M  V30 26 O 3.8971 0.0 0.0 0
M  V30 27 C 2.598 -0.75 0.0 0
M  V30 28 C 1.299 0.0 0.0 0
M  V30 29 O 1.299 1.5 0.0 0
M  V30 30 O 0.0 -0.75 0.0 0
M  V30 END ATOM
M  V30 BEGIN BOND
M  V30 1 1 1 2
M  V30 2 1 1 3
M  V30 3 2 2 4
M  V30 4 1 2 5
M  V30 5 2 3 6
M  V30 6 1 3 7
M  V30 7 2 5 8
M  V30 8 1 5 9
M  V30 9 1 6 10
M  V30 10 1 7 11
M  V30 11 1 8 12
M  V30 12 2 9 13
M  V30 13 1 11 14
M  V30 14 2 12 15
M  V30 15 2 14 16
M  V30 16 1 14 17
M  V30 17 1 15 18
M  V30 18 1 16 19
M  V30 19 2 17 20
M  V30 20 1 18 21
M  V30 21 1 18 22
M  V30 22 1 18 23
M  V30 23 2 19 24
M  V30 24 1 19 25
M  V30 25 1 24 26
M  V30 26 1 26 27
M  V30 27 1 27 28
M  V30 28 2 28 29
M  V30 29 1 28 30
M  V30 30 1 4 6
M  V30 31 1 13 15
M  V30 32 1 20 24
M  V30 END BOND
M  V30 END CTAB
M  END
>  <Molecule ChEMBL ID>
CHEMBL38943

>  <Smiles>
Cc1cc(SCc2sc(-c3ccc(C(F)(F)F)cc3)nc2C)ccc1OCC(=O)O

>  <IC50_nM>
6309.57

>  <Assay Description>
Displacement of [3H]GW 2433 from human PPARgamma by scintillation proximity assay

$$$$
CHEMBL524829
Actelion Java MolfileCreator 2.0

  0  0  0  0  0  0              0 V3000
M  V30 BEGIN CTAB
M  V30 COUNTS 34 37 0 0 0
M  V30 BEGIN ATOM
M  V30 1 Cl 7.7942 2.25 0.0 0
M  V30 2 C 6.4951 1.5 0.0 0
M  V30 3 C 6.4951 0.0 0.0 0
M  V30 4 C 5.1961 2.25 0.0 0
M  V30 5 C 5.1961 -0.75 0.0 0
M  V30 6 C 3.8971 1.5 0.0 0
M  V30 7 C 3.8971 0.0 0.0 0
M  V30 8 C 5.1961 -2.25 0.0 0
M  V30 9 N 2.598 -0.75 0.0 0
M  V30 10 O 6.4951 -3.0 0.0 0
M  V30 11 O 3.8971 -3.0 0.0 0
M  V30 12 C 1.299 0.0 0.0 0
M  V30 13 O 1.299 1.5 0.0 0
M  V30 14 C 0.0 -0.75 0.0 0
M  V30 15 C -1.299 0.0 0.0 0
M  V30 16 C 0.0 -2.25 0.0 0
M  V30 17 C -2.598 -0.75 0.0 0
M  V30 18 C -1.299 -3.0 0.0 0
M  V30 19 S -3.8971 0.0 0.0 0
M  V30 20 C -2.598 -2.25 0.0 0
M  V30 21 O -3.1471 1.299 0.0 0
M  V30 22 O -4.6471 1.299 0.0 0
M  V30 23 N -5.1961 -0.75 0.0 0
M  V30 24 C -6.4951 0.0 0.0 0
M  V30 25 C -5.1961 -2.25 0.0 0
M  V30 26 C -7.7942 -0.75 0.0 0
M  V30 27 C -6.4951 -3.0 0.0 0
M  V30 28 C -7.7942 -2.25 0.0 0
M  V30 29 C -9.0932 0.0 0.0 0
M  V30 30 C -9.0932 -3.0 0.0 0
M  V30 31 C -10.3923 -0.75 0.0 0
M  V30 32 C -10.3923 -2.25 0.0 0
M  V30 33 O -11.6913 -3.0 0.0 0
M  V30 34 C -11.6913 -4.5 0.0 0
M  V30 END ATOM
M  V30 BEGIN BOND
M  V30 1 1 1 2
M  V30 2 2 2 3
M  V30 3 1 2 4
M  V30 4 1 3 5
M  V30 5 2 4 6
M  V30 6 2 5 7
M  V30 7 1 5 8
M  V30 8 1 7 9
M  V30 9 2 8 10
M  V30 10 1 8 11
M  V30 11 1 9 12
M  V30 12 2 12 13
M  V30 13 1 12 14
M  V30 14 2 14 15
M  V30 15 1 14 16
M  V30 16 1 15 17
M  V30 17 2 16 18
M  V30 18 1 17 19
M  V30 19 2 17 20
M  V30 20 2 19 21
M  V30 21 2 19 22
M  V30 22 1 19 23
M  V30 23 1 23 24
M  V30 24 1 23 25
M  V30 25 1 24 26
M  V30 26 1 25 27
M  V30 27 2 26 28
M  V30 28 1 26 29
M  V30 29 1 28 30
M  V30 30 2 29 31
M  V30 31 2 30 32
M  V30 32 1 32 33
M  V30 33 1 33 34
M  V30 34 1 6 7
M  V30 35 1 18 20
M  V30 36 1 27 28
M  V30 37 1 31 32
M  V30 END BOND
M  V30 END CTAB
M  END
>  <Molecule ChEMBL ID>
CHEMBL524829

>  <Smiles>
COc1ccc2c(c1)CCN(S(=O)(=O)c1cccc(C(=O)Nc3ccc(Cl)cc3C(=O)O)c1)C2

>  <IC50_nM>
6310

>  <Assay Description>
Agonist activity at PPARgamma

$$$$
CHEMBL182200
Actelion Java MolfileCreator 2.0

  0  0  0  0  0  0              0 V3000
M  V30 BEGIN CTAB
M  V30 COUNTS 34 37 0 0 0
M  V30 BEGIN ATOM
M  V30 1 Cl 9.0932 1.5 0.0 0
M  V30 2 C 9.0932 0.0 0.0 0
M  V30 3 C 7.7942 -0.75 0.0 0
M  V30 4 C 10.3923 -0.75 0.0 0
M  V30 5 O 6.4951 0.0 0.0 0
M  V30 6 C 7.7942 -2.25 0.0 0
M  V30 7 C 10.3923 -2.25 0.0 0
M  V30 8 C 5.1961 -0.75 0.0 0
M  V30 9 C 9.0932 -3.0 0.0 0
M  V30 10 C 11.6913 -3.0 0.0 0
M  V30 11 C 3.8971 0.0 0.0 0
M  V30 12 C 11.6913 -4.5 0.0 0
M  V30 13 C 12.9903 -2.25 0.0 0
M  V30 14 C 2.598 -0.75 0.0 0
M  V30 15 C 12.9903 -5.25 0.0 0
M  V30 16 C 14.2894 -3.0 0.0 0
M  V30 17 O 1.299 0.0 0.0 0
M  V30 18 C 14.2894 -4.5 0.0 0
M  V30 19 C 0.0 -0.75 0.0 0
M  V30 20 C 15.0394 -5.799 0.0 0
M  V30 21 C 15.7894 -4.4999 0.0 0
M  V30 22 C -1.299 0.0 0.0 0
M  V30 23 C 0.0 -2.25 0.0 0
M  V30 24 C -2.598 -0.75 0.0 0
M  V30 25 C -1.299 -3.0 0.0 0
M  V30 26 O -3.8971 0.0 0.0 0
M  V30 27 C -2.598 -2.25 0.0 0
M  V30 28 C -5.1961 -0.75 0.0 0 CFG=1
M  V30 29 C -3.8971 -3.0 0.0 0
M  V30 30 C -6.4951 0.0 0.0 0
M  V30 31 C -5.1961 -2.25 0.0 0
M  V30 32 C -6.4951 -1.5 0.0 0
M  V30 33 O -7.7942 -0.75 0.0 0
M  V30 34 O -6.4951 1.5 0.0 0
M  V30 END ATOM
M  V30 BEGIN BOND
M  V30 1 1 1 2
M  V30 2 2 2 3
M  V30 3 1 2 4
M  V30 4 1 3 5
M  V30 5 1 3 6
M  V30 6 2 4 7
M  V30 7 1 5 8
M  V30 8 2 6 9
M  V30 9 1 7 10
M  V30 10 1 8 11
M  V30 11 1 10 12
M  V30 12 1 10 13
M  V30 13 1 11 14
M  V30 14 1 12 15
M  V30 15 1 13 16
M  V30 16 1 14 17
M  V30 17 1 15 18
M  V30 18 1 17 19
M  V30 19 1 18 20
M  V30 20 1 18 21
M  V30 21 2 19 22
M  V30 22 1 19 23
M  V30 23 1 22 24
M  V30 24 2 23 25
M  V30 25 1 24 26
M  V30 26 2 24 27
M  V30 27 1 26 28
M  V30 28 1 27 29
M  V30 29 1 28 30
M  V30 30 1 28 31
M  V30 31 1 28 32 CFG=1
M  V30 32 2 30 33
M  V30 33 1 30 34
M  V30 34 1 7 9
M  V30 35 1 16 18
M  V30 36 1 25 27
M  V30 37 1 29 31
M  V30 END BOND
M  V30 BEGIN COLLECTION
M  V30 MDLV30/STEABS ATOMS=(1 28)
M  V30 END COLLECTION
M  V30 END CTAB
M  END
>  <Molecule ChEMBL ID>
CHEMBL182200

>  <Smiles>
CC1(C)CCC(c2ccc(OCCCOc3ccc4c(c3)O[C@@](C)(C(=O)O)CC4)c(Cl)c2)CC1

>  <IC50_nM>
6400

>  <Assay Description>
In vitro binding affinity against human PPARgamma

$$$$
CHEMBL453509
Actelion Java MolfileCreator 2.0

  0  0  0  0  0  0              0 V3000
M  V30 BEGIN CTAB
M  V30 COUNTS 18 17 0 0 0
M  V30 BEGIN ATOM
M  V30 1 O 20.7846 -0.75 0.0 0
M  V30 2 C 19.4855 0.0 0.0 0
M  V30 3 O 19.4855 1.5 0.0 0
M  V30 4 C 18.1865 -0.75 0.0 0
M  V30 5 C 16.8874 0.0 0.0 0
M  V30 6 C 15.5884 -0.75 0.0 0
M  V30 7 C 14.2894 0.0 0.0 0
M  V30 8 C 12.9903 -0.75 0.0 0
M  V30 9 C 11.6913 0.0 0.0 0
M  V30 10 C 10.3923 -0.75 0.0 0
M  V30 11 C 9.0932 0.0 0.0 0
M  V30 12 C 7.7942 -0.75 0.0 0
M  V30 13 C 7.7942 -2.25 0.0 0
M  V30 14 C 6.4951 -2.9999 0.0 0
M  V30 15 C 6.4951 -4.5 0.0 0
M  V30 16 C 5.1961 -5.25 0.0 0
M  V30 17 C 5.1961 -6.75 0.0 0
M  V30 18 C 3.8971 -7.4999 0.0 0
M  V30 END ATOM
M  V30 BEGIN BOND
M  V30 1 2 1 2
M  V30 2 1 2 3
M  V30 3 1 2 4
M  V30 4 1 4 5
M  V30 5 1 5 6
M  V30 6 1 6 7
M  V30 7 1 7 8
M  V30 8 1 8 9
M  V30 9 1 9 10
M  V30 10 1 10 11
M  V30 11 2 11 12
M  V30 12 1 12 13
M  V30 13 1 13 14
M  V30 14 1 14 15
M  V30 15 1 15 16
M  V30 16 1 16 17
M  V30 17 1 17 18
M  V30 END BOND
M  V30 END CTAB
M  END
>  <Molecule ChEMBL ID>
CHEMBL453509

>  <Smiles>
CCCCCC/C=C\CCCCCCCC(=O)O

>  <IC50_nM>
6400

>  <Assay Description>
Displacement of [3H]BRL49653 from Homo sapiens (human) PPARgamma receptor by scintillation proximity assay

$$$$
CHEMBL4467078
Actelion Java MolfileCreator 2.0

  0  0  0  0  0  0              0 V3000
M  V30 BEGIN CTAB
M  V30 COUNTS 42 45 0 0 0
M  V30 BEGIN ATOM
M  V30 1 F 8.8923 12.75 0.0 0
M  V30 2 C 10.3923 12.7499 0.0 0
M  V30 3 F 10.3923 14.25 0.0 0
M  V30 4 F 11.8923 12.7499 0.0 0
M  V30 5 C 10.3923 11.25 0.0 0
M  V30 6 N 9.0932 10.5 0.0 0
M  V30 7 C 11.6913 10.4999 0.0 0
M  V30 8 C 9.0932 8.9999 0.0 0
M  V30 9 C 11.6913 8.9999 0.0 0
M  V30 10 C 10.3923 8.25 0.0 0
M  V30 11 C 7.7942 8.25 0.0 0
M  V30 12 O 12.9903 8.2499 0.0 0
M  V30 13 C 10.3923 6.75 0.0 0
M  V30 14 C 7.7942 6.75 0.0 0
M  V30 15 C 14.2894 8.9999 0.0 0
M  V30 16 C 9.0932 5.9999 0.0 0
M  V30 17 C 9.0932 4.4999 0.0 0
M  V30 18 O 7.7942 3.75 0.0 0
M  V30 19 C 7.7942 2.25 0.0 0
M  V30 20 C 6.4951 1.5 0.0 0
M  V30 21 C 9.0932 1.4999 0.0 0
M  V30 22 C 6.4951 0.0 0.0 0
M  V30 23 C 9.0932 0.0 0.0 0
M  V30 24 C 7.7942 -0.75 0.0 0
M  V30 25 C 5.1961 -0.75 0.0 0
M  V30 26 O 7.7942 -2.25 0.0 0
M  V30 27 C 3.8971 0.0 0.0 0
M  V30 28 C 9.0932 -3.0 0.0 0
M  V30 29 C 2.598 -0.75 0.0 0
M  V30 30 C 3.8971 1.4999 0.0 0
M  V30 31 C 9.0932 -4.5 0.0 0
M  V30 32 O 2.598 -2.25 0.0 0
M  V30 33 O 1.299 0.0 0.0 0
M  V30 34 C 2.598 2.2499 0.0 0
M  V30 35 N 10.3923 -5.25 0.0 0
M  V30 36 C 2.598 3.75 0.0 0
M  V30 37 C 10.3923 -6.75 0.0 0
M  V30 38 C 11.6913 -4.5 0.0 0
M  V30 39 C 11.6913 -7.5 0.0 0
M  V30 40 C 12.9903 -5.25 0.0 0
M  V30 41 N 12.9903 -6.75 0.0 0
M  V30 42 C 14.2894 -7.5 0.0 0
M  V30 END ATOM
M  V30 BEGIN BOND
M  V30 1 1 1 2
M  V30 2 1 2 3
M  V30 3 1 2 4
M  V30 4 1 2 5
M  V30 5 2 5 6
M  V30 6 1 5 7
M  V30 7 1 6 8
M  V30 8 2 7 9
M  V30 9 1 8 10
M  V30 10 2 8 11
M  V30 11 1 9 12
M  V30 12 2 10 13
M  V30 13 1 11 14
M  V30 14 1 12 15
M  V30 15 1 13 16
M  V30 16 1 16 17
M  V30 17 1 17 18
M  V30 18 1 18 19
M  V30 19 2 19 20
M  V30 20 1 19 21
M  V30 21 1 20 22
M  V30 22 2 21 23
M  V30 23 2 22 24
M  V30 24 1 22 25
M  V30 25 1 24 26
M  V30 26 2 25 27
M  V30 27 1 26 28
M  V30 28 1 27 29
M  V30 29 1 27 30
M  V30 30 1 28 31
M  V30 31 2 29 32
M  V30 32 1 29 33
M  V30 33 1 30 34
M  V30 34 1 31 35
M  V30 35 1 34 36
M  V30 36 1 35 37
M  V30 37 1 35 38
M  V30 38 1 37 39
M  V30 39 1 38 40
M  V30 40 1 39 41
M  V30 41 1 41 42
M  V30 42 1 9 10
M  V30 43 2 14 16
M  V30 44 1 23 24
M  V30 45 1 40 41
M  V30 END BOND
M  V30 END CTAB
M  END
>  <Molecule ChEMBL ID>
CHEMBL4467078

>  <Smiles>
CCC/C(=C\c1cc(OCc2ccc3nc(C(F)(F)F)cc(OC)c3c2)ccc1OCCN1CCN(C)CC1)C(=O)O

>  <IC50_nM>
6400

>  <Assay Description>
Antagonist actvity in sGFP-tagged PPARgamma LBD (unknown origin) assessed as inhibition of rosiglitazone-induced PPARgamma activation incubated for 1 hr in presence of CBP-1 cofactor peptide by HTRF based cofactor recruitment assay

$$$$
CHEMBL1783058
Actelion Java MolfileCreator 2.0

  0  0  0  0  0  0              0 V3000
M  V30 BEGIN CTAB
M  V30 COUNTS 24 25 0 0 0
M  V30 BEGIN ATOM
M  V30 1 Cl 6.0621 1.0 0.0 0
M  V30 2 C 6.0621 0.0 0.0 0
M  V30 3 C 5.1961 -0.5 0.0 0
M  V30 4 C 6.9282 -0.4999 0.0 0
M  V30 5 O 4.3301 0.0 0.0 0
M  V30 6 C 5.1961 -1.4999 0.0 0
M  V30 7 C 6.9282 -1.4999 0.0 0
M  V30 8 C 3.4641 -0.5 0.0 0
M  V30 9 C 6.0621 -1.9999 0.0 0
M  V30 10 C 7.7942 -1.9999 0.0 0
M  V30 11 C 2.598 0.0 0.0 0
M  V30 12 C 1.732 -0.5 0.0 0
M  V30 13 O 0.866 0.0 0.0 0
M  V30 14 C 0.0 -0.5 0.0 0
M  V30 15 C -0.866 0.0 0.0 0
M  V30 16 C 0.0 -1.4999 0.0 0
M  V30 17 C -1.732 -0.4999 0.0 0
M  V30 18 C -0.866 -1.9999 0.0 0
M  V30 19 C -1.732 -1.4999 0.0 0
M  V30 20 C -2.598 -1.9999 0.0 0
M  V30 21 C -2.598 -2.9999 0.0 0
M  V30 22 C -3.4641 -3.4999 0.0 0
M  V30 23 O -4.3301 -2.9999 0.0 0
M  V30 24 O -3.4641 -4.4999 0.0 0
M  V30 END ATOM
M  V30 BEGIN BOND
M  V30 1 1 1 2
M  V30 2 2 2 3
M  V30 3 1 2 4
M  V30 4 1 3 5
M  V30 5 1 3 6
M  V30 6 2 4 7
M  V30 7 1 5 8
M  V30 8 2 6 9
M  V30 9 1 7 10
M  V30 10 1 8 11
M  V30 11 1 11 12
M  V30 12 1 12 13
M  V30 13 1 13 14
M  V30 14 2 14 15
M  V30 15 1 14 16
M  V30 16 1 15 17
M  V30 17 2 16 18
M  V30 18 2 17 19
M  V30 19 1 19 20
M  V30 20 1 20 21
M  V30 21 1 21 22
M  V30 22 2 22 23
M  V30 23 1 22 24
M  V30 24 1 7 9
M  V30 25 1 18 19
M  V30 END BOND
M  V30 END CTAB
M  END
>  <Molecule ChEMBL ID>
CHEMBL1783058

>  <Smiles>
Cc1ccc(OCCCOc2ccc(CCC(=O)O)cc2)c(Cl)c1

>  <IC50_nM>
6440

>  <Assay Description>
Displacement of radio-labeled full agonist from PPARgamma receptor

$$$$
CHEMBL204057
Actelion Java MolfileCreator 2.0

  0  0  0  0  0  0              0 V3000
M  V30 BEGIN CTAB
M  V30 COUNTS 31 33 0 0 0
M  V30 BEGIN ATOM
M  V30 1 Cl 9.0932 1.5 0.0 0
M  V30 2 C 9.0932 0.0 0.0 0
M  V30 3 C 7.7942 -0.75 0.0 0
M  V30 4 C 10.3923 -0.7499 0.0 0
M  V30 5 O 6.4951 0.0 0.0 0
M  V30 6 C 7.7942 -2.25 0.0 0
M  V30 7 C 10.3923 -2.2499 0.0 0
M  V30 8 C 5.1961 -0.75 0.0 0
M  V30 9 C 9.0932 -2.9999 0.0 0
M  V30 10 O 11.6913 -2.9999 0.0 0
M  V30 11 C 3.8971 0.0 0.0 0
M  V30 12 C 12.9903 -2.2499 0.0 0
M  V30 13 C 2.598 -0.75 0.0 0
M  V30 14 C 14.2894 -2.9999 0.0 0
M  V30 15 C 12.9903 -0.7499 0.0 0
M  V30 16 O 1.299 0.0 0.0 0
M  V30 17 C 15.5884 -2.25 0.0 0
M  V30 18 C 14.2894 0.0 0.0 0
M  V30 19 C 0.0 -0.75 0.0 0
M  V30 20 C 15.5884 -0.75 0.0 0
M  V30 21 C -1.299 0.0 0.0 0
M  V30 22 C 0.0 -2.25 0.0 0
M  V30 23 F 16.8874 0.0 0.0 0
M  V30 24 C -2.598 -0.7499 0.0 0
M  V30 25 C -1.299 -2.9999 0.0 0
M  V30 26 C -2.598 -2.2499 0.0 0
M  V30 27 C -3.8971 -2.9999 0.0 0
M  V30 28 C -3.8971 -4.4999 0.0 0
M  V30 29 C -5.1961 -5.2499 0.0 0
M  V30 30 O -6.4951 -4.4999 0.0 0
M  V30 31 O -5.1961 -6.7499 0.0 0
M  V30 END ATOM
M  V30 BEGIN BOND
M  V30 1 1 1 2
M  V30 2 2 2 3
M  V30 3 1 2 4
M  V30 4 1 3 5
M  V30 5 1 3 6
M  V30 6 2 4 7
M  V30 7 1 5 8
M  V30 8 2 6 9
M  V30 9 1 7 10
M  V30 10 1 8 11
M  V30 11 1 10 12
M  V30 12 1 11 13
M  V30 13 2 12 14
M  V30 14 1 12 15
M  V30 15 1 13 16
M  V30 16 1 14 17
M  V30 17 2 15 18
M  V30 18 1 16 19
M  V30 19 2 17 20
M  V30 20 2 19 21
M  V30 21 1 19 22
M  V30 22 1 20 23
M  V30 23 1 21 24
M  V30 24 2 22 25
M  V30 25 2 24 26
M  V30 26 1 26 27
M  V30 27 1 27 28
M  V30 28 1 28 29
M  V30 29 2 29 30
M  V30 30 1 29 31
M  V30 31 1 7 9
M  V30 32 1 18 20
M  V30 33 1 25 26
M  V30 END BOND
M  V30 END CTAB
M  END
>  <Molecule ChEMBL ID>
CHEMBL204057

>  <Smiles>
O=C(O)CCc1ccc(OCCCOc2ccc(Oc3ccc(F)cc3)cc2Cl)cc1

>  <IC50_nM>
6440

>  <Assay Description>
Binding affinity to human PPAR gamma

$$$$
CHEMBL3753473
Actelion Java MolfileCreator 2.0

  0  0  0  0  0  0              0 V3000
M  V30 BEGIN CTAB
M  V30 COUNTS 39 42 0 0 0
M  V30 BEGIN ATOM
M  V30 1 O 0.0 -6.5 0.0 0
M  V30 2 C 0.866 -6.0 0.0 0
M  V30 3 N 1.732 -6.5 0.0 0
M  V30 4 N 0.866 -5.0 0.0 0
M  V30 5 C 2.598 -6.0 0.0 0
M  V30 6 C 1.732 -4.5 0.0 0
M  V30 7 O 3.4641 -6.5 0.0 0
M  V30 8 C 2.598 -5.0 0.0 0
M  V30 9 O 1.732 -3.5 0.0 0
M  V30 10 C 3.4641 -4.5 0.0 0
M  V30 11 C 3.4641 -3.5 0.0 0
M  V30 12 C 4.3301 -3.0 0.0 0
M  V30 13 C 2.598 -3.0 0.0 0
M  V30 14 C 4.3301 -2.0 0.0 0
M  V30 15 C 2.598 -2.0 0.0 0
M  V30 16 C 3.4641 -1.5 0.0 0
M  V30 17 N 3.4641 -0.5 0.0 0
M  V30 18 C 4.3301 0.0 0.0 0
M  V30 19 C 2.598 0.0 0.0 0
M  V30 20 C 5.1961 -0.5 0.0 0
M  V30 21 C 1.732 -0.5 0.0 0
M  V30 22 O 6.0621 0.0 0.0 0
M  V30 23 O 0.866 0.0 0.0 0
M  V30 24 C 6.9282 -0.5 0.0 0
M  V30 25 C 0.0 -0.5 0.0 0
M  V30 26 C 6.9282 -1.5 0.0 0
M  V30 27 C 7.7942 0.0 0.0 0
M  V30 28 C -0.866 0.0 0.0 0
M  V30 29 C 0.0 -1.4999 0.0 0
M  V30 30 C 7.7942 -2.0 0.0 0
M  V30 31 C 8.6602 -0.5 0.0 0
M  V30 32 C -1.732 -0.4999 0.0 0
M  V30 33 C -0.866 -1.9999 0.0 0
M  V30 34 C 8.6602 -1.4999 0.0 0
M  V30 35 C -1.732 -1.4999 0.0 0
M  V30 36 C 9.5262 -1.9999 0.0 0
M  V30 37 C -2.598 -1.9999 0.0 0
M  V30 38 N 10.3923 -2.4999 0.0 0
M  V30 39 N -3.4641 -2.4999 0.0 0
M  V30 END ATOM
M  V30 BEGIN BOND
M  V30 1 2 1 2
M  V30 2 1 2 3
M  V30 3 1 2 4
M  V30 4 1 3 5
M  V30 5 1 4 6
M  V30 6 2 5 7
M  V30 7 1 5 8
M  V30 8 2 6 9
M  V30 9 2 8 10
M  V30 10 1 10 11
M  V30 11 2 11 12
M  V30 12 1 11 13
M  V30 13 1 12 14
M  V30 14 2 13 15
M  V30 15 2 14 16
M  V30 16 1 16 17
M  V30 17 1 17 18
M  V30 18 1 17 19
M  V30 19 1 18 20
M  V30 20 1 19 21
M  V30 21 1 20 22
M  V30 22 1 21 23
M  V30 23 1 22 24
M  V30 24 1 23 25
M  V30 25 2 24 26
M  V30 26 1 24 27
M  V30 27 2 25 28
M  V30 28 1 25 29
M  V30 29 1 26 30
M  V30 30 2 27 31
M  V30 31 1 28 32
M  V30 32 2 29 33
M  V30 33 2 30 34
M  V30 34 2 32 35
M  V30 35 1 34 36
M  V30 36 1 35 37
M  V30 37 3 36 38
M  V30 38 3 37 39
M  V30 39 1 6 8
M  V30 40 1 15 16
M  V30 41 1 31 34
M  V30 42 1 33 35
M  V30 END BOND
M  V30 END CTAB
M  END
>  <Molecule ChEMBL ID>
CHEMBL3753473

>  <Smiles>
N#Cc1ccc(OCCN(CCOc2ccc(C#N)cc2)c2ccc(C=C3C(=O)NC(=O)NC3=O)cc2)cc1

>  <IC50_nM>
6500

>  <Assay Description>
Binding affinity to GST-tagged human PPAR-gamma receptor by FRET assay

$$$$
CHEMBL4098877
Actelion Java MolfileCreator 2.0

  0  0  0  0  0  0              0 V3000
M  V30 BEGIN CTAB
M  V30 COUNTS 28 32 0 0 0
M  V30 BEGIN ATOM
M  V30 1 O -2.4448 -3.6327 0.0 0
M  V30 2 C -2.1358 -4.5838 0.0 0 CFG=2
M  V30 3 C -1.7757 -2.8896 0.0 0 CFG=1
M  V30 4 C -1.1576 -4.7917 0.0 0
M  V30 5 C -2.8049 -5.3269 0.0 0
M  V30 6 C -0.7975 -3.0975 0.0 0
M  V30 7 C -2.0847 -1.9385 0.0 0
M  V30 8 N -0.4885 -4.0486 0.0 0
M  V30 9 C 0.4895 -4.2565 0.0 0
M  V30 10 N 0.7985 -5.2075 0.0 0
M  V30 11 C 1.1587 -3.5133 0.0 0
M  V30 12 C 1.7767 -5.4154 0.0 0
M  V30 13 C 2.1368 -3.7212 0.0 0
M  V30 14 N 2.4458 -4.6723 0.0 0
M  V30 15 C 2.8059 -2.9781 0.0 0
M  V30 16 N 3.8005 -3.0826 0.0 0
M  V30 17 C 2.598 -1.9999 0.0 0
M  V30 18 N 4.2072 -2.1691 0.0 0
M  V30 19 C 3.4641 -1.4999 0.0 0
M  V30 20 C 1.732 -1.5 0.0 0
M  V30 21 C 3.4641 -0.4999 0.0 0
M  V30 22 C 1.732 -0.5 0.0 0
M  V30 23 C 2.598 0.0 0.0 0
M  V30 24 O 0.866 0.0 0.0 0
M  V30 25 C 0.0 -0.5 0.0 0
M  V30 26 C -1.0 -0.4999 0.0 0
M  V30 27 C -0.5 -1.366 0.0 0
M  V30 28 C 0.7071 -1.2071 0.0 0
M  V30 END ATOM
M  V30 BEGIN BOND
M  V30 1 1 1 2
M  V30 2 1 1 3
M  V30 3 1 2 4
M  V30 4 1 2 5 CFG=3
M  V30 5 1 3 6
M  V30 6 1 3 7 CFG=3
M  V30 7 1 4 8
M  V30 8 1 8 9
M  V30 9 2 9 10
M  V30 10 1 9 11
M  V30 11 1 10 12
M  V30 12 2 11 13
M  V30 13 2 12 14
M  V30 14 1 13 15
M  V30 15 2 15 16
M  V30 16 1 15 17
M  V30 17 1 16 18
M  V30 18 2 17 19
M  V30 19 1 17 20
M  V30 20 1 19 21
M  V30 21 2 20 22
M  V30 22 2 21 23
M  V30 23 1 22 24
M  V30 24 1 24 25
M  V30 25 1 25 26
M  V30 26 1 25 27
M  V30 27 1 25 28
M  V30 28 1 6 8
M  V30 29 1 13 14
M  V30 30 1 18 19
M  V30 31 1 22 23
M  V30 32 1 26 27
M  V30 END BOND
M  V30 BEGIN COLLECTION
M  V30 MDLV30/STEABS ATOMS=(2 2 3)
M  V30 END COLLECTION
M  V30 END CTAB
M  END
>  <Molecule ChEMBL ID>
CHEMBL4098877

>  <Smiles>
C[C@@H]1CN(c2cc(-c3n[nH]c4ccc(OC5(C)CC5)cc34)ncn2)C[C@H](C)O1

>  <IC50_nM>
6500

>  <Assay Description>
Selectivity interaction (Enzymatic assay (PanLabs Profiling)) EUB0000715a PPARG

$$$$
CHEMBL424133
Actelion Java MolfileCreator 2.0

  0  0  0  0  0  0              0 V3000
M  V30 BEGIN CTAB
M  V30 COUNTS 30 32 0 0 0
M  V30 BEGIN ATOM
M  V30 1 O 10.3923 -6.75 0.0 0
M  V30 2 C 10.3923 -5.25 0.0 0
M  V30 3 O 11.6913 -4.5 0.0 0
M  V30 4 C 9.0932 -4.5 0.0 0
M  V30 5 O 9.0932 -3.0 0.0 0
M  V30 6 C 7.5933 -4.4999 0.0 0
M  V30 7 C 8.3433 -5.799 0.0 0
M  V30 8 C 7.7942 -2.25 0.0 0
M  V30 9 C 7.7942 -0.75 0.0 0
M  V30 10 C 6.4951 -3.0 0.0 0
M  V30 11 C 6.4951 0.0 0.0 0
M  V30 12 C 5.1961 -2.25 0.0 0
M  V30 13 C 5.1961 -0.75 0.0 0
M  V30 14 C 3.8971 0.0 0.0 0
M  V30 15 C 2.598 -0.75 0.0 0
M  V30 16 C 1.299 0.0 0.0 0
M  V30 17 C 0.0 -0.75 0.0 0
M  V30 18 N -1.3703 -0.1398 0.0 0
M  V30 19 N -0.1567 -2.2417 0.0 0
M  V30 20 N -2.374 -1.2546 0.0 0
M  V30 21 C -1.624 -2.5536 0.0 0
M  V30 22 C -3.8658 -1.0978 0.0 0
M  V30 23 O -2.2341 -3.9239 0.0 0
M  V30 24 C -4.7474 -2.3113 0.0 0
M  V30 25 C -6.2392 -2.1545 0.0 0
M  V30 26 C -4.1373 -3.6816 0.0 0
M  V30 27 C -7.1209 -3.368 0.0 0
M  V30 28 C -5.019 -4.8951 0.0 0
M  V30 29 C -6.5108 -4.7384 0.0 0
M  V30 30 C -7.3925 -5.9519 0.0 0
M  V30 END ATOM
M  V30 BEGIN BOND
M  V30 1 2 1 2
M  V30 2 1 2 3
M  V30 3 1 2 4
M  V30 4 1 4 5
M  V30 5 1 4 6
M  V30 6 1 4 7
M  V30 7 1 5 8
M  V30 8 2 8 9
M  V30 9 1 8 10
M  V30 10 1 9 11
M  V30 11 2 10 12
M  V30 12 2 11 13
M  V30 13 1 13 14
M  V30 14 1 14 15
M  V30 15 1 15 16
M  V30 16 1 16 17
M  V30 17 2 17 18
M  V30 18 1 17 19
M  V30 19 1 18 20
M  V30 20 2 19 21
M  V30 21 1 20 22
M  V30 22 1 21 23
M  V30 23 1 22 24
M  V30 24 2 24 25
M  V30 25 1 24 26
M  V30 26 1 25 27
M  V30 27 2 26 28
M  V30 28 2 27 29
M  V30 29 1 29 30
M  V30 30 1 12 13
M  V30 31 1 20 21
M  V30 32 1 28 29
M  V30 END BOND
M  V30 END CTAB
M  END
>  <Molecule ChEMBL ID>
CHEMBL424133

>  <Smiles>
Cc1ccc(Cn2nc(CCCc3ccc(OC(C)(C)C(=O)O)cc3)nc2O)cc1

>  <IC50_nM>
6500

>  <Assay Description>
Inhibitory activity of compound against the binding of human Peroxisome proliferator activated receptor gamma was determined

$$$$
CHEMBL424133
Actelion Java MolfileCreator 2.0

  0  0  0  0  0  0              0 V3000
M  V30 BEGIN CTAB
M  V30 COUNTS 30 32 0 0 0
M  V30 BEGIN ATOM
M  V30 1 O 10.3923 -6.75 0.0 0
M  V30 2 C 10.3923 -5.25 0.0 0
M  V30 3 O 11.6913 -4.5 0.0 0
M  V30 4 C 9.0932 -4.5 0.0 0
M  V30 5 O 9.0932 -3.0 0.0 0
M  V30 6 C 7.5933 -4.4999 0.0 0
M  V30 7 C 8.3433 -5.799 0.0 0
M  V30 8 C 7.7942 -2.25 0.0 0
M  V30 9 C 7.7942 -0.75 0.0 0
M  V30 10 C 6.4951 -3.0 0.0 0
M  V30 11 C 6.4951 0.0 0.0 0
M  V30 12 C 5.1961 -2.25 0.0 0
M  V30 13 C 5.1961 -0.75 0.0 0
M  V30 14 C 3.8971 0.0 0.0 0
M  V30 15 C 2.598 -0.75 0.0 0
M  V30 16 C 1.299 0.0 0.0 0
M  V30 17 C 0.0 -0.75 0.0 0
M  V30 18 N -1.3703 -0.1398 0.0 0
M  V30 19 N -0.1567 -2.2417 0.0 0
M  V30 20 N -2.374 -1.2546 0.0 0
M  V30 21 C -1.624 -2.5536 0.0 0
M  V30 22 C -3.8658 -1.0978 0.0 0
M  V30 23 O -2.2341 -3.9239 0.0 0
M  V30 24 C -4.7474 -2.3113 0.0 0
M  V30 25 C -6.2392 -2.1545 0.0 0
M  V30 26 C -4.1373 -3.6816 0.0 0
M  V30 27 C -7.1209 -3.368 0.0 0
M  V30 28 C -5.019 -4.8951 0.0 0
M  V30 29 C -6.5108 -4.7384 0.0 0
M  V30 30 C -7.3925 -5.9519 0.0 0
M  V30 END ATOM
M  V30 BEGIN BOND
M  V30 1 2 1 2
M  V30 2 1 2 3
M  V30 3 1 2 4
M  V30 4 1 4 5
M  V30 5 1 4 6
M  V30 6 1 4 7
M  V30 7 1 5 8
M  V30 8 2 8 9
M  V30 9 1 8 10
M  V30 10 1 9 11
M  V30 11 2 10 12
M  V30 12 2 11 13
M  V30 13 1 13 14
M  V30 14 1 14 15
M  V30 15 1 15 16
M  V30 16 1 16 17
M  V30 17 2 17 18
M  V30 18 1 17 19
M  V30 19 1 18 20
M  V30 20 2 19 21
M  V30 21 1 20 22
M  V30 22 1 21 23
M  V30 23 1 22 24
M  V30 24 2 24 25
M  V30 25 1 24 26
M  V30 26 1 25 27
M  V30 27 2 26 28
M  V30 28 2 27 29
M  V30 29 1 29 30
M  V30 30 1 12 13
M  V30 31 1 20 21
M  V30 32 1 28 29
M  V30 END BOND
M  V30 END CTAB
M  END
>  <Molecule ChEMBL ID>
CHEMBL424133

>  <Smiles>
Cc1ccc(Cn2nc(CCCc3ccc(OC(C)(C)C(=O)O)cc3)nc2O)cc1

>  <IC50_nM>
6501.3

>  <Assay Description>
Agonist activity at PPARgamma

$$$$
CHEMBL4098877
Actelion Java MolfileCreator 2.0

  0  0  0  0  0  0              0 V3000
M  V30 BEGIN CTAB
M  V30 COUNTS 28 32 0 0 0
M  V30 BEGIN ATOM
M  V30 1 O -2.4448 -3.6327 0.0 0
M  V30 2 C -2.1358 -4.5838 0.0 0 CFG=2
M  V30 3 C -1.7757 -2.8896 0.0 0 CFG=1
M  V30 4 C -1.1576 -4.7917 0.0 0
M  V30 5 C -2.8049 -5.3269 0.0 0
M  V30 6 C -0.7975 -3.0975 0.0 0
M  V30 7 C -2.0847 -1.9385 0.0 0
M  V30 8 N -0.4885 -4.0486 0.0 0
M  V30 9 C 0.4895 -4.2565 0.0 0
M  V30 10 N 0.7985 -5.2075 0.0 0
M  V30 11 C 1.1587 -3.5133 0.0 0
M  V30 12 C 1.7767 -5.4154 0.0 0
M  V30 13 C 2.1368 -3.7212 0.0 0
M  V30 14 N 2.4458 -4.6723 0.0 0
M  V30 15 C 2.8059 -2.9781 0.0 0
M  V30 16 N 3.8005 -3.0826 0.0 0
M  V30 17 C 2.598 -1.9999 0.0 0
M  V30 18 N 4.2072 -2.1691 0.0 0
M  V30 19 C 3.4641 -1.4999 0.0 0
M  V30 20 C 1.732 -1.5 0.0 0
M  V30 21 C 3.4641 -0.4999 0.0 0
M  V30 22 C 1.732 -0.5 0.0 0
M  V30 23 C 2.598 0.0 0.0 0
M  V30 24 O 0.866 0.0 0.0 0
M  V30 25 C 0.0 -0.5 0.0 0
M  V30 26 C -1.0 -0.4999 0.0 0
M  V30 27 C -0.5 -1.366 0.0 0
M  V30 28 C 0.7071 -1.2071 0.0 0
M  V30 END ATOM
M  V30 BEGIN BOND
M  V30 1 1 1 2
M  V30 2 1 1 3
M  V30 3 1 2 4
M  V30 4 1 2 5 CFG=3
M  V30 5 1 3 6
M  V30 6 1 3 7 CFG=3
M  V30 7 1 4 8
M  V30 8 1 8 9
M  V30 9 2 9 10
M  V30 10 1 9 11
M  V30 11 1 10 12
M  V30 12 2 11 13
M  V30 13 2 12 14
M  V30 14 1 13 15
M  V30 15 2 15 16
M  V30 16 1 15 17
M  V30 17 1 16 18
M  V30 18 2 17 19
M  V30 19 1 17 20
M  V30 20 1 19 21
M  V30 21 2 20 22
M  V30 22 2 21 23
M  V30 23 1 22 24
M  V30 24 1 24 25
M  V30 25 1 25 26
M  V30 26 1 25 27
M  V30 27 1 25 28
M  V30 28 1 6 8
M  V30 29 1 13 14
M  V30 30 1 18 19
M  V30 31 1 22 23
M  V30 32 1 26 27
M  V30 END BOND
M  V30 BEGIN COLLECTION
M  V30 MDLV30/STEABS ATOMS=(2 2 3)
M  V30 END COLLECTION
M  V30 END CTAB
M  END
>  <Molecule ChEMBL ID>
CHEMBL4098877

>  <Smiles>
C[C@@H]1CN(c2cc(-c3n[nH]c4ccc(OC5(C)CC5)cc34)ncn2)C[C@H](C)O1

>  <IC50_nM>
6520

>  <Assay Description>
PPARgamma Eurofins-Panlabs radioligand binding assay

$$$$
CHEMBL1947138
Actelion Java MolfileCreator 2.0

  0  0  0  0  0  0              0 V3000
M  V30 BEGIN CTAB
M  V30 COUNTS 40 45 0 0 0
M  V30 BEGIN ATOM
M  V30 1 F 3.2907 2.3257 0.0 0
M  V30 2 C 4.2417 2.0167 0.0 0
M  V30 3 F 4.5507 2.9678 0.0 0
M  V30 4 F 5.1928 1.7077 0.0 0
M  V30 5 C 3.9327 1.0657 0.0 0
M  V30 6 C 2.9546 0.8577 0.0 0
M  V30 7 C 4.6018 0.3225 0.0 0
M  V30 8 C 2.6455 -0.0932 0.0 0
M  V30 9 C 4.2928 -0.6284 0.0 0
M  V30 10 N 1.732 -0.5 0.0 0
M  V30 11 C 3.3147 -0.8364 0.0 0
M  V30 12 C 1.8365 -1.4945 0.0 0
M  V30 13 C 0.866 0.0 0.0 0
M  V30 14 N 2.8147 -1.7024 0.0 0
M  V30 15 O 1.0934 -2.1636 0.0 0
M  V30 16 C 0.0 -0.5 0.0 0
M  V30 17 C 3.2214 -2.6159 0.0 0
M  V30 18 C -0.866 0.0 0.0 0
M  V30 19 C 0.0 -1.4999 0.0 0
M  V30 20 N 2.7214 -3.482 0.0 0
M  V30 21 C 4.1996 -2.8238 0.0 0
M  V30 22 C -1.732 -0.4999 0.0 0
M  V30 23 C -0.866 1.0 0.0 0 CFG=1
M  V30 24 C -0.866 -1.9999 0.0 0
M  V30 25 O 3.3905 -4.2251 0.0 0
M  V30 26 C 4.3041 -3.8184 0.0 0
M  V30 27 C 5.0086 -2.2361 0.0 0
M  V30 28 C -1.732 -1.4999 0.0 0
M  V30 29 O -0.057 1.5877 0.0 0
M  V30 30 C -1.675 1.5877 0.0 0
M  V30 31 C -1.757 0.546 0.0 0
M  V30 32 C 5.2176 -4.2251 0.0 0
M  V30 33 C 5.9221 -2.6428 0.0 0
M  V30 34 C -0.366 2.5388 0.0 0
M  V30 35 O -2.626 1.2787 0.0 0
M  V30 36 N -1.366 2.5388 0.0 0
M  V30 37 C 6.0267 -3.6373 0.0 0
M  V30 38 O 0.2217 3.3478 0.0 0
M  V30 39 O 6.9402 -4.0441 0.0 0
M  V30 40 C 7.7492 -3.4563 0.0 0
M  V30 END ATOM
M  V30 BEGIN BOND
M  V30 1 1 1 2
M  V30 2 1 2 3
M  V30 3 1 2 4
M  V30 4 1 2 5
M  V30 5 2 5 6
M  V30 6 1 5 7
M  V30 7 1 6 8
M  V30 8 2 7 9
M  V30 9 1 8 10
M  V30 10 2 8 11
M  V30 11 1 10 12
M  V30 12 1 10 13
M  V30 13 1 11 14
M  V30 14 2 12 15
M  V30 15 1 13 16
M  V30 16 1 14 17
M  V30 17 2 16 18
M  V30 18 1 16 19
M  V30 19 2 17 20
M  V30 20 1 17 21
M  V30 21 1 18 22
M  V30 22 1 18 23
M  V30 23 2 19 24
M  V30 24 1 20 25
M  V30 25 2 21 26
M  V30 26 1 21 27
M  V30 27 2 22 28
M  V30 28 1 23 29
M  V30 29 1 23 30
M  V30 30 1 23 31 CFG=1
M  V30 31 1 26 32
M  V30 32 2 27 33
M  V30 33 1 29 34
M  V30 34 2 30 35
M  V30 35 1 30 36
M  V30 36 2 32 37
M  V30 37 2 34 38
M  V30 38 1 37 39
M  V30 39 1 39 40
M  V30 40 1 9 11
M  V30 41 1 12 14
M  V30 42 1 24 28
M  V30 43 1 25 26
M  V30 44 1 33 37
M  V30 45 1 34 36
M  V30 END BOND
M  V30 BEGIN COLLECTION
M  V30 MDLV30/STEABS ATOMS=(1 23)
M  V30 END COLLECTION
M  V30 END CTAB
M  END
>  <Molecule ChEMBL ID>
CHEMBL1947138

>  <Smiles>
COc1ccc2c(-n3c(=O)n(Cc4ccccc4[C@@]4(C)OC(=O)NC4=O)c4cc(C(F)(F)F)ccc43)noc2c1

>  <IC50_nM>
6633

>  <Assay Description>
Binding affinity to human PPARgamma by scintillation proximity assay

$$$$
CHEMBL4209440
Actelion Java MolfileCreator 2.0

  0  0  0  0  0  0              0 V3000
M  V30 BEGIN CTAB
M  V30 COUNTS 27 29 0 0 0
M  V30 BEGIN ATOM
M  V30 1 O 1.732 -1.5 0.0 0
M  V30 2 C 1.732 -0.5 0.0 0
M  V30 3 O 2.598 0.0 0.0 0
M  V30 4 C 0.866 0.0 0.0 0
M  V30 5 C 3.4641 -0.5 0.0 0
M  V30 6 C 0.0 -0.5 0.0 0
M  V30 7 C -0.866 0.0 0.0 0
M  V30 8 C 0.0 -1.4999 0.0 0
M  V30 9 C -1.732 -0.4999 0.0 0
M  V30 10 C -0.866 -1.9999 0.0 0
M  V30 11 C -1.732 -1.4999 0.0 0
M  V30 12 O -2.598 -1.9999 0.0 0
M  V30 13 C -3.4641 -1.4999 0.0 0
M  V30 14 C -4.3301 -1.9999 0.0 0
M  V30 15 O -5.2436 -1.5932 0.0 0
M  V30 16 C -4.4346 -2.9945 0.0 0
M  V30 17 C -5.9128 -2.3364 0.0 0
M  V30 18 N -5.4128 -3.2024 0.0 0
M  V30 19 C -3.6915 -3.6636 0.0 0
M  V30 20 C -6.9073 -2.2318 0.0 0
M  V30 21 C -7.314 -1.3183 0.0 0
M  V30 22 C -7.4951 -3.0408 0.0 0
M  V30 23 C -8.3085 -1.2138 0.0 0
M  V30 24 C -8.4896 -2.9363 0.0 0
M  V30 25 O -8.7153 -0.3002 0.0 0
M  V30 26 C -8.8963 -2.0228 0.0 0
M  V30 27 C -9.7098 -0.1957 0.0 0
M  V30 END ATOM
M  V30 BEGIN BOND
M  V30 1 2 1 2
M  V30 2 1 2 3
M  V30 3 1 2 4
M  V30 4 1 3 5
M  V30 5 1 4 6
M  V30 6 2 6 7
M  V30 7 1 6 8
M  V30 8 1 7 9
M  V30 9 2 8 10
M  V30 10 2 9 11
M  V30 11 1 11 12
M  V30 12 1 12 13
M  V30 13 1 13 14
M  V30 14 1 14 15
M  V30 15 2 14 16
M  V30 16 1 15 17
M  V30 17 1 16 18
M  V30 18 1 16 19
M  V30 19 1 17 20
M  V30 20 2 20 21
M  V30 21 1 20 22
M  V30 22 1 21 23
M  V30 23 2 22 24
M  V30 24 1 23 25
M  V30 25 2 23 26
M  V30 26 1 25 27
M  V30 27 1 10 11
M  V30 28 2 17 18
M  V30 29 1 24 26
M  V30 END BOND
M  V30 END CTAB
M  END
>  <Molecule ChEMBL ID>
CHEMBL4209440

>  <Smiles>
COC(=O)Cc1ccc(OCc2oc(-c3cccc(OC)c3)nc2C)cc1

>  <IC50_nM>
6700

>  <Assay Description>
Antagonist activity at CMV-fused PPARgamma-LBD-GAL4-DBD (unknown origin) expressed in HEK293T cells assessed as inhibition of rosiglitazone-induced receptor transactivation after 16 hrs by bright-Glo luciferase reporter gene assay

$$$$
CHEMBL54097
Actelion Java MolfileCreator 2.0

  0  0  0  0  0  0              0 V3000
M  V30 BEGIN CTAB
M  V30 COUNTS 35 38 0 0 0
M  V30 BEGIN ATOM
M  V30 1 S 7.8987 -2.9945 0.0 0
M  V30 2 C 8.8769 -3.2024 0.0 0
M  V30 3 C 7.7942 -2.0 0.0 0 CFG=2
M  V30 4 O 9.2836 -4.1159 0.0 0
M  V30 5 N 9.3769 -2.3364 0.0 0
M  V30 6 C 6.9282 -1.5 0.0 0
M  V30 7 C 8.7077 -1.5932 0.0 0
M  V30 8 C 6.9282 -0.5 0.0 0
M  V30 9 C 6.0621 -2.0 0.0 0
M  V30 10 O 8.9156 -0.6151 0.0 0
M  V30 11 C 6.0621 0.0 0.0 0
M  V30 12 C 5.1961 -1.5 0.0 0
M  V30 13 C 5.1961 -0.5 0.0 0
M  V30 14 C 6.0621 0.9999 0.0 0
M  V30 15 O 4.3301 0.0 0.0 0
M  V30 16 C 3.4641 -0.5 0.0 0
M  V30 17 C 2.598 0.0 0.0 0
M  V30 18 C 1.732 -0.5 0.0 0
M  V30 19 O 0.866 0.0 0.0 0
M  V30 20 C 0.0 -0.5 0.0 0
M  V30 21 C -0.866 0.0 0.0 0
M  V30 22 C 0.0 -1.4999 0.0 0
M  V30 23 C -1.732 -0.4999 0.0 0
M  V30 24 C -0.866 1.0 0.0 0
M  V30 25 C -0.866 -1.9999 0.0 0
M  V30 26 C -1.732 -1.4999 0.0 0
M  V30 27 C 0.0 1.5 0.0 0
M  V30 28 O -2.598 -1.9999 0.0 0
M  V30 29 C 0.0 2.5 0.0 0
M  V30 30 C -2.598 -2.9999 0.0 0
M  V30 31 C -3.4641 -3.4999 0.0 0
M  V30 32 C -1.732 -3.4999 0.0 0
M  V30 33 C -3.4641 -4.4999 0.0 0
M  V30 34 C -1.732 -4.4999 0.0 0
M  V30 35 C -2.598 -4.9999 0.0 0
M  V30 END ATOM
M  V30 BEGIN BOND
M  V30 1 1 1 2
M  V30 2 1 1 3
M  V30 3 2 2 4
M  V30 4 1 2 5
M  V30 5 1 3 6 CFG=3
M  V30 6 1 3 7
M  V30 7 2 6 8
M  V30 8 1 6 9
M  V30 9 2 7 10
M  V30 10 1 8 11
M  V30 11 2 9 12
M  V30 12 2 11 13
M  V30 13 1 11 14
M  V30 14 1 13 15
M  V30 15 1 15 16
M  V30 16 1 16 17
M  V30 17 1 17 18
M  V30 18 1 18 19
M  V30 19 1 19 20
M  V30 20 2 20 21
M  V30 21 1 20 22
M  V30 22 1 21 23
M  V30 23 1 21 24
M  V30 24 2 22 25
M  V30 25 2 23 26
M  V30 26 1 24 27
M  V30 27 1 26 28
M  V30 28 1 27 29
M  V30 29 1 28 30
M  V30 30 2 30 31
M  V30 31 1 30 32
M  V30 32 1 31 33
M  V30 33 2 32 34
M  V30 34 2 33 35
M  V30 35 1 5 7
M  V30 36 1 12 13
M  V30 37 1 25 26
M  V30 38 1 34 35
M  V30 END BOND
M  V30 BEGIN COLLECTION
M  V30 MDLV30/STERAC1 ATOMS=(1 3)
M  V30 END COLLECTION
M  V30 END CTAB
M  END
>  <Molecule ChEMBL ID>
CHEMBL54097

>  <Smiles>
CCCc1cc(Oc2ccccc2)ccc1OCCCOc1ccc(C2SC(=O)NC2=O)cc1C

>  <IC50_nM>
6700

>  <Assay Description>
In vitro binding affinity against human PPAR gamma (peroxisome proliferator-activated gamma receptor)

$$$$
CHEMBL3678096
Actelion Java MolfileCreator 2.0

  0  0  0  0  0  0              0 V3000
M  V30 BEGIN CTAB
M  V30 COUNTS 30 34 0 0 0
M  V30 BEGIN ATOM
M  V30 1 F 6.2082 4.1621 0.0 0
M  V30 2 C 6.8773 3.419 0.0 0
M  V30 3 C 6.5683 2.4679 0.0 0
M  V30 4 C 7.8555 3.6269 0.0 0
M  V30 5 C 7.2374 1.7248 0.0 0
M  V30 6 C 5.5902 2.26 0.0 0
M  V30 7 C 8.5246 2.8838 0.0 0
M  V30 8 C 8.2156 1.9327 0.0 0
M  V30 9 N 5.2811 1.309 0.0 0
M  V30 10 F 9.5027 3.0917 0.0 0
M  V30 11 C 4.3301 1.0 0.0 0
M  V30 12 C 5.8689 0.5 0.0 0
M  V30 13 C 4.3301 0.0 0.0 0
M  V30 14 C 3.4641 1.5 0.0 0
M  V30 15 C 5.2811 -0.309 0.0 0
M  V30 16 C 3.4641 -0.4999 0.0 0
M  V30 17 C 2.598 0.9999 0.0 0
M  V30 18 C 2.598 0.0 0.0 0
M  V30 19 C 1.732 -0.5 0.0 0
M  V30 20 O 1.732 -1.5 0.0 0
M  V30 21 N 0.866 0.0 0.0 0
M  V30 22 C 0.0 -0.5 0.0 0 CFG=1
M  V30 23 C -1.0 -0.4999 0.0 0 CFG=1
M  V30 24 C -0.5 -1.366 0.0 0
M  V30 25 C -1.866 0.0 0.0 0
M  V30 26 C -1.866 1.0 0.0 0
M  V30 27 C -2.732 -0.4999 0.0 0
M  V30 28 C -2.732 1.5 0.0 0
M  V30 29 C -3.598 0.0 0.0 0
M  V30 30 C -3.598 1.0 0.0 0
M  V30 END ATOM
M  V30 BEGIN BOND
M  V30 1 1 1 2
M  V30 2 2 2 3
M  V30 3 1 2 4
M  V30 4 1 3 5
M  V30 5 1 3 6
M  V30 6 2 4 7
M  V30 7 2 5 8
M  V30 8 1 6 9
M  V30 9 1 7 10
M  V30 10 1 9 11
M  V30 11 1 9 12
M  V30 12 2 11 13
M  V30 13 1 11 14
M  V30 14 2 12 15
M  V30 15 1 13 16
M  V30 16 2 14 17
M  V30 17 2 16 18
M  V30 18 1 18 19
M  V30 19 2 19 20
M  V30 20 1 19 21
M  V30 21 1 22 21 CFG=3
M  V30 22 1 22 23
M  V30 23 1 22 24
M  V30 24 1 23 25 CFG=1
M  V30 25 2 25 26
M  V30 26 1 25 27
M  V30 27 1 26 28
M  V30 28 2 27 29
M  V30 29 2 28 30
M  V30 30 1 7 8
M  V30 31 1 13 15
M  V30 32 1 17 18
M  V30 33 1 23 24
M  V30 34 1 29 30
M  V30 END BOND
M  V30 BEGIN COLLECTION
M  V30 MDLV30/STEABS ATOMS=(2 22 23)
M  V30 END COLLECTION
M  V30 END CTAB
M  END
>  <Molecule ChEMBL ID>
CHEMBL3678096

>  <Smiles>
O=C(N[C@@H]1C[C@H]1c1ccccc1)c1ccc2c(ccn2Cc2ccc(F)cc2F)c1

>  <IC50_nM>
6700

>  <Assay Description>
Lanthascreen Competitive Binding Assay: The assay was performed according to manufacturer protocol. A mixture of 5 nM GST-PPARG-LBD, 5 nM Tb-GST-antibody, 5 nM Fluormone Pan- PPAR Green, and serial dilutions of the experimental compound, beginning at 10 ׬� downwards, was added to wells of black 384-well low- volume plates (Greiner) to a total volume of 18 xL. All dilutions were made in TR-FRET assay buffer C. DMSO at 2% final concentration was used as a no-ligand control. Experiment was performed in triplicate, and incubated for 2 hours in the dark prior to assay read in Perkin Elmer ViewLux ultra HTS microplate reader. FRET signal was measured by excitation at 340 nm and emission at 520 nm for fluorescein and 490 nm for terbium.

$$$$
CHEMBL425725
Actelion Java MolfileCreator 2.0

  0  0  0  0  0  0              0 V3000
M  V30 BEGIN CTAB
M  V30 COUNTS 31 33 0 0 0
M  V30 BEGIN ATOM
M  V30 1 Cl 6.0621 1.0 0.0 0
M  V30 2 C 6.0621 0.0 0.0 0
M  V30 3 C 5.1961 -0.5 0.0 0
M  V30 4 C 6.9282 -0.4999 0.0 0
M  V30 5 O 4.3301 0.0 0.0 0
M  V30 6 C 5.1961 -1.4999 0.0 0
M  V30 7 C 6.9282 -1.4999 0.0 0
M  V30 8 C 3.4641 -0.5 0.0 0
M  V30 9 C 6.0621 -1.9999 0.0 0
M  V30 10 S 7.7942 -1.9999 0.0 0
M  V30 11 C 2.598 0.0 0.0 0
M  V30 12 C 8.6602 -1.4999 0.0 0
M  V30 13 C 1.732 -0.5 0.0 0
M  V30 14 F 8.1602 -0.6339 0.0 0
M  V30 15 F 9.5262 -0.9999 0.0 0
M  V30 16 F 9.1602 -2.366 0.0 0
M  V30 17 O 0.866 0.0 0.0 0
M  V30 18 C 0.0 -0.5 0.0 0
M  V30 19 C 0.0 -1.4999 0.0 0
M  V30 20 C -0.866 0.0 0.0 0
M  V30 21 C -0.866 -1.9999 0.0 0
M  V30 22 C -1.732 -0.4999 0.0 0
M  V30 23 C -1.732 -1.4999 0.0 0
M  V30 24 C -1.0739 -2.9781 0.0 0
M  V30 25 O -2.4751 -2.1691 0.0 0
M  V30 26 C -2.0684 -3.0826 0.0 0 CFG=2
M  V30 27 C -3.067 -3.0303 0.0 0
M  V30 28 C -2.5684 -3.9487 0.0 0
M  V30 29 O -3.6117 -3.869 0.0 0
M  V30 30 O -3.521 -2.1393 0.0 0
M  V30 31 C -2.0684 -4.8147 0.0 0
M  V30 END ATOM
M  V30 BEGIN BOND
M  V30 1 1 1 2
M  V30 2 2 2 3
M  V30 3 1 2 4
M  V30 4 1 3 5
M  V30 5 1 3 6
M  V30 6 2 4 7
M  V30 7 1 5 8
M  V30 8 2 6 9
M  V30 9 1 7 10
M  V30 10 1 8 11
M  V30 11 1 10 12
M  V30 12 1 11 13
M  V30 13 1 12 14
M  V30 14 1 12 15
M  V30 15 1 12 16
M  V30 16 1 13 17
M  V30 17 1 17 18
M  V30 18 2 18 19
M  V30 19 1 18 20
M  V30 20 1 19 21
M  V30 21 2 20 22
M  V30 22 2 21 23
M  V30 23 1 21 24
M  V30 24 1 23 25
M  V30 25 1 24 26
M  V30 26 1 26 27
M  V30 27 1 26 28 CFG=3
M  V30 28 2 27 29
M  V30 29 1 27 30
M  V30 30 1 28 31
M  V30 31 1 7 9
M  V30 32 1 22 23
M  V30 33 1 25 26
M  V30 END BOND
M  V30 BEGIN COLLECTION
M  V30 MDLV30/STERAC1 ATOMS=(1 26)
M  V30 END COLLECTION
M  V30 END CTAB
M  END
>  <Molecule ChEMBL ID>
CHEMBL425725

>  <Smiles>
CCC1(C(=O)O)Cc2cc(OCCCOc3ccc(SC(F)(F)F)cc3Cl)ccc2O1

>  <IC50_nM>
6770

>  <Assay Description>
In vitro binding affinity for PPAR-gamma

$$$$
CHEMBL1947141
Actelion Java MolfileCreator 2.0

  0  0  0  0  0  0              0 V3000
M  V30 BEGIN CTAB
M  V30 COUNTS 39 44 0 0 0
M  V30 BEGIN ATOM
M  V30 1 F 3.8297 -6.7164 0.0 0
M  V30 2 C 2.9161 -6.3097 0.0 0
M  V30 3 F 2.5094 -7.2232 0.0 0
M  V30 4 F 2.0026 -5.9029 0.0 0
M  V30 5 C 3.3229 -5.3961 0.0 0
M  V30 6 C 4.3174 -5.2916 0.0 0
M  V30 7 C 2.7351 -4.5871 0.0 0
M  V30 8 C 4.7241 -4.3781 0.0 0
M  V30 9 C 3.1418 -3.6736 0.0 0
M  V30 10 N 5.6752 -4.069 0.0 0
M  V30 11 C 4.1363 -3.569 0.0 0
M  V30 12 C 6.4842 -4.6568 0.0 0
M  V30 13 C 5.6752 -3.069 0.0 0
M  V30 14 N 4.7241 -2.76 0.0 0
M  V30 15 C 6.3797 -5.6513 0.0 0
M  V30 16 C 7.3977 -4.2501 0.0 0
M  V30 17 O 6.4842 -2.4813 0.0 0
M  V30 18 C 4.4151 -1.809 0.0 0
M  V30 19 C 7.1887 -6.2391 0.0 0
M  V30 20 C 8.2068 -4.8379 0.0 0
M  V30 21 N 5.0029 -1.0 0.0 0
M  V30 22 C 3.4641 -1.4999 0.0 0
M  V30 23 C 8.1022 -5.8324 0.0 0
M  V30 24 C 7.0842 -7.2337 0.0 0 CFG=1
M  V30 25 O 4.4151 -0.1909 0.0 0
M  V30 26 C 3.4641 -0.4999 0.0 0
M  V30 27 C 2.598 -1.9999 0.0 0
M  V30 28 O 6.2181 -7.7337 0.0 0
M  V30 29 C 7.8273 -7.9028 0.0 0
M  V30 30 C 8.0177 -6.8753 0.0 0
M  V30 31 C 2.598 0.0 0.0 0
M  V30 32 C 1.732 -1.4999 0.0 0
M  V30 33 C 6.426 -8.7118 0.0 0
M  V30 34 O 8.8055 -7.6949 0.0 0
M  V30 35 N 7.4206 -8.8163 0.0 0
M  V30 36 C 1.732 -0.5 0.0 0
M  V30 37 O 5.7569 -9.4549 0.0 0
M  V30 38 O 0.866 0.0 0.0 0
M  V30 39 C 0.0 -0.5 0.0 0
M  V30 END ATOM
M  V30 BEGIN BOND
M  V30 1 1 1 2
M  V30 2 1 2 3
M  V30 3 1 2 4
M  V30 4 1 2 5
M  V30 5 2 5 6
M  V30 6 1 5 7
M  V30 7 1 6 8
M  V30 8 2 7 9
M  V30 9 1 8 10
M  V30 10 2 8 11
M  V30 11 1 10 12
M  V30 12 1 10 13
M  V30 13 1 11 14
M  V30 14 2 12 15
M  V30 15 1 12 16
M  V30 16 2 13 17
M  V30 17 1 14 18
M  V30 18 1 15 19
M  V30 19 2 16 20
M  V30 20 2 18 21
M  V30 21 1 18 22
M  V30 22 2 19 23
M  V30 23 1 19 24
M  V30 24 1 21 25
M  V30 25 2 22 26
M  V30 26 1 22 27
M  V30 27 1 24 28
M  V30 28 1 24 29
M  V30 29 1 24 30 CFG=1
M  V30 30 1 26 31
M  V30 31 2 27 32
M  V30 32 1 28 33
M  V30 33 2 29 34
M  V30 34 1 29 35
M  V30 35 2 31 36
M  V30 36 2 33 37
M  V30 37 1 36 38
M  V30 38 1 38 39
M  V30 39 1 9 11
M  V30 40 1 13 14
M  V30 41 1 20 23
M  V30 42 1 25 26
M  V30 43 1 32 36
M  V30 44 1 33 35
M  V30 END BOND
M  V30 BEGIN COLLECTION
M  V30 MDLV30/STEABS ATOMS=(1 24)
M  V30 END COLLECTION
M  V30 END CTAB
M  END
>  <Molecule ChEMBL ID>
CHEMBL1947141

>  <Smiles>
COc1ccc2c(-n3c(=O)n(-c4cccc([C@@]5(C)OC(=O)NC5=O)c4)c4cc(C(F)(F)F)ccc43)noc2c1

>  <IC50_nM>
6935

>  <Assay Description>
Binding affinity to human PPARgamma by scintillation proximity assay

$$$$
CHEMBL253120
Actelion Java MolfileCreator 2.0

  0  0  0  0  0  0              0 V3000
M  V30 BEGIN CTAB
M  V30 COUNTS 32 35 0 0 0
M  V30 BEGIN ATOM
M  V30 1 Cl 3.8971 9.0 0.0 0
M  V30 2 C 5.1961 8.25 0.0 0
M  V30 3 C 5.1961 6.75 0.0 0
M  V30 4 C 6.4951 9.0 0.0 0
M  V30 5 O 3.8971 6.0 0.0 0
M  V30 6 C 6.4951 6.0 0.0 0
M  V30 7 C 7.7942 8.25 0.0 0
M  V30 8 C 6.4951 10.5 0.0 0
M  V30 9 C 2.598 6.75 0.0 0
M  V30 10 C 6.4951 4.5 0.0 0
M  V30 11 C 7.7942 6.75 0.0 0
M  V30 12 C 5.1961 3.75 0.0 0
M  V30 13 C 7.7942 3.75 0.0 0
M  V30 14 C 9.0932 6.0 0.0 0
M  V30 15 O 3.8971 4.5 0.0 0
M  V30 16 C 5.1961 2.25 0.0 0
M  V30 17 C 7.7942 2.25 0.0 0
M  V30 18 C 9.0932 4.5 0.0 0
M  V30 19 C 6.4951 1.5 0.0 0
M  V30 20 C 3.8971 1.5 0.0 0
M  V30 21 O 9.0932 1.5 0.0 0
M  V30 22 O 10.3923 3.75 0.0 0
M  V30 23 C 6.4951 0.0 0.0 0
M  V30 24 C 3.8971 0.0 0.0 0
M  V30 25 O 7.7942 -0.75 0.0 0
M  V30 26 C 5.1961 -0.75 0.0 0
M  V30 27 C 2.598 -0.75 0.0 0
M  V30 28 C 5.1961 -2.25 0.0 0
M  V30 29 O 2.598 -2.25 0.0 0
M  V30 30 O 1.299 0.0 0.0 0
M  V30 31 C 6.4951 -3.0 0.0 0
M  V30 32 C 0.0 -0.75 0.0 0
M  V30 END ATOM
M  V30 BEGIN BOND
M  V30 1 1 1 2
M  V30 2 2 2 3
M  V30 3 1 2 4
M  V30 4 1 3 5
M  V30 5 1 3 6
M  V30 6 2 4 7
M  V30 7 1 4 8
M  V30 8 1 5 9
M  V30 9 2 6 10
M  V30 10 1 6 11
M  V30 11 1 10 12
M  V30 12 1 10 13
M  V30 13 2 11 14
M  V30 14 2 12 15
M  V30 15 1 12 16
M  V30 16 1 13 17
M  V30 17 2 13 18
M  V30 18 2 16 19
M  V30 19 1 16 20
M  V30 20 2 17 21
M  V30 21 1 18 22
M  V30 22 1 19 23
M  V30 23 2 20 24
M  V30 24 1 23 25
M  V30 25 2 23 26
M  V30 26 1 24 27
M  V30 27 1 26 28
M  V30 28 2 27 29
M  V30 29 1 27 30
M  V30 30 1 28 31
M  V30 31 1 30 32
M  V30 32 1 7 11
M  V30 33 1 14 18
M  V30 34 1 17 19
M  V30 35 1 24 26
M  V30 END BOND
M  V30 END CTAB
M  END
>  <Molecule ChEMBL ID>
CHEMBL253120

>  <Smiles>
CCc1c(C(=O)OC)cc2c(c1O)C(=O)c1c(O)cc3cc(C)c(Cl)c(OC)c3c1C2=O

>  <IC50_nM>
7000

>  <Assay Description>
Antagonist activity at human PPARgamma receptor in CHO-K1 cells assessed as rosiglitazone-induced receptor activation by cell based reporter assay

$$$$
CHEMBL523651
Actelion Java MolfileCreator 2.0

  0  0  0  0  0  0              0 V3000
M  V30 BEGIN CTAB
M  V30 COUNTS 36 38 0 0 0
M  V30 BEGIN ATOM
M  V30 1 S 5.1961 -0.75 0.0 0
M  V30 2 O 4.4461 -2.049 0.0 0
M  V30 3 O 5.9461 -2.049 0.0 0
M  V30 4 N 3.8971 0.0 0.0 0
M  V30 5 C 6.4952 0.0 0.0 0
M  V30 6 C 2.598 -0.75 0.0 0
M  V30 7 C 7.7942 -0.75 0.0 0
M  V30 8 C 6.4952 1.5 0.0 0
M  V30 9 O 2.598 -2.25 0.0 0
M  V30 10 N 1.299 0.0 0.0 0
M  V30 11 C 9.0932 0.0 0.0 0
M  V30 12 C 7.7942 2.25 0.0 0
M  V30 13 C 0.0 -0.75 0.0 0
M  V30 14 C 9.0932 1.5 0.0 0
M  V30 15 C -1.299 0.0 0.0 0
M  V30 16 C 0.0 -2.25 0.0 0
M  V30 17 C 10.3923 2.25 0.0 0
M  V30 18 C -2.598 -0.75 0.0 0
M  V30 19 C -1.299 -3.0 0.0 0
M  V30 20 C 11.6913 1.5 0.0 0
M  V30 21 C -2.598 -2.25 0.0 0
M  V30 22 N 12.9904 2.25 0.0 0
M  V30 23 C -3.8971 -3.0 0.0 0
M  V30 24 S 14.2894 1.5 0.0 0
M  V30 25 O 13.5394 0.201 0.0 0
M  V30 26 O 15.0394 0.201 0.0 0
M  V30 27 C 15.5884 2.25 0.0 0
M  V30 28 C 16.8875 1.5 0.0 0
M  V30 29 C 15.5884 3.75 0.0 0
M  V30 30 C 18.1865 2.25 0.0 0
M  V30 31 C 16.8875 4.5 0.0 0
M  V30 32 C 18.1865 3.75 0.0 0
M  V30 33 N 19.4856 4.5 0.0 0
M  V30 34 C 20.7846 3.75 0.0 0
M  V30 35 O 20.7846 2.25 0.0 0
M  V30 36 C 22.0836 4.5 0.0 0
M  V30 END ATOM
M  V30 BEGIN BOND
M  V30 1 2 1 2
M  V30 2 2 1 3
M  V30 3 1 1 4
M  V30 4 1 1 5
M  V30 5 1 4 6
M  V30 6 2 5 7
M  V30 7 1 5 8
M  V30 8 2 6 9
M  V30 9 1 6 10
M  V30 10 1 7 11
M  V30 11 2 8 12
M  V30 12 1 10 13
M  V30 13 2 11 14
M  V30 14 1 13 15
M  V30 15 1 13 16
M  V30 16 1 14 17
M  V30 17 1 15 18
M  V30 18 1 16 19
M  V30 19 1 17 20
M  V30 20 1 18 21
M  V30 21 1 20 22
M  V30 22 1 21 23
M  V30 23 1 22 24
M  V30 24 2 24 25
M  V30 25 2 24 26
M  V30 26 1 24 27
M  V30 27 2 27 28
M  V30 28 1 27 29
M  V30 29 1 28 30
M  V30 30 2 29 31
M  V30 31 2 30 32
M  V30 32 1 32 33
M  V30 33 1 33 34
M  V30 34 2 34 35
M  V30 35 1 34 36
M  V30 36 1 12 14
M  V30 37 1 19 21
M  V30 38 1 31 32
M  V30 END BOND
M  V30 END CTAB
M  END
>  <Molecule ChEMBL ID>
CHEMBL523651

>  <Smiles>
CC(=O)Nc1ccc(S(=O)(=O)NCCc2ccc(S(=O)(=O)NC(=O)NC3CCC(C)CC3)cc2)cc1

>  <IC50_nM>
7140

>  <Assay Description>
Displacement of fluormone-PPARgamma green from GST-tagged PPARgamma-LBD (unknown origin) by fluorescence polarization assay

$$$$
CHEMBL4460064
Actelion Java MolfileCreator 2.0

  0  0  0  0  0  0              0 V3000
M  V30 BEGIN CTAB
M  V30 COUNTS 40 43 0 0 0
M  V30 BEGIN ATOM
M  V30 1 F 8.8923 12.75 0.0 0
M  V30 2 C 10.3923 12.7499 0.0 0
M  V30 3 F 10.3923 14.25 0.0 0
M  V30 4 F 11.8923 12.7499 0.0 0
M  V30 5 C 10.3923 11.25 0.0 0
M  V30 6 N 9.0932 10.5 0.0 0
M  V30 7 C 11.6913 10.4999 0.0 0
M  V30 8 C 9.0932 8.9999 0.0 0
M  V30 9 C 11.6913 8.9999 0.0 0
M  V30 10 C 10.3923 8.25 0.0 0
M  V30 11 C 7.7942 8.25 0.0 0
M  V30 12 O 12.9903 8.2499 0.0 0
M  V30 13 C 10.3923 6.75 0.0 0
M  V30 14 C 7.7942 6.75 0.0 0
M  V30 15 C 14.2894 8.9999 0.0 0
M  V30 16 C 9.0932 5.9999 0.0 0
M  V30 17 C 9.0932 4.4999 0.0 0
M  V30 18 O 7.7942 3.75 0.0 0
M  V30 19 C 7.7942 2.25 0.0 0
M  V30 20 C 6.4951 1.5 0.0 0
M  V30 21 C 9.0932 1.4999 0.0 0
M  V30 22 C 6.4951 0.0 0.0 0
M  V30 23 C 9.0932 0.0 0.0 0
M  V30 24 C 7.7942 -0.75 0.0 0
M  V30 25 C 5.1961 -0.75 0.0 0
M  V30 26 O 7.7942 -2.25 0.0 0
M  V30 27 C 3.8971 0.0 0.0 0
M  V30 28 C 6.4951 -3.0 0.0 0
M  V30 29 C 2.598 -0.75 0.0 0
M  V30 30 C 3.8971 1.4999 0.0 0
M  V30 31 C 6.4951 -4.5 0.0 0
M  V30 32 O 2.598 -2.25 0.0 0
M  V30 33 O 1.299 0.0 0.0 0
M  V30 34 C 2.598 2.2499 0.0 0
M  V30 35 C 5.1961 -5.2499 0.0 0
M  V30 36 C 7.7942 -5.25 0.0 0
M  V30 37 C 2.598 3.75 0.0 0
M  V30 38 C 5.1961 -6.7499 0.0 0
M  V30 39 C 7.7942 -6.75 0.0 0
M  V30 40 C 6.4951 -7.5 0.0 0
M  V30 END ATOM
M  V30 BEGIN BOND
M  V30 1 1 1 2
M  V30 2 1 2 3
M  V30 3 1 2 4
M  V30 4 1 2 5
M  V30 5 2 5 6
M  V30 6 1 5 7
M  V30 7 1 6 8
M  V30 8 2 7 9
M  V30 9 1 8 10
M  V30 10 2 8 11
M  V30 11 1 9 12
M  V30 12 2 10 13
M  V30 13 1 11 14
M  V30 14 1 12 15
M  V30 15 1 13 16
M  V30 16 1 16 17
M  V30 17 1 17 18
M  V30 18 1 18 19
M  V30 19 2 19 20
M  V30 20 1 19 21
M  V30 21 1 20 22
M  V30 22 2 21 23
M  V30 23 2 22 24
M  V30 24 1 22 25
M  V30 25 1 24 26
M  V30 26 2 25 27
M  V30 27 1 26 28
M  V30 28 1 27 29
M  V30 29 1 27 30
M  V30 30 1 28 31
M  V30 31 2 29 32
M  V30 32 1 29 33
M  V30 33 1 30 34
M  V30 34 2 31 35
M  V30 35 1 31 36
M  V30 36 1 34 37
M  V30 37 1 35 38
M  V30 38 2 36 39
M  V30 39 2 38 40
M  V30 40 1 9 10
M  V30 41 2 14 16
M  V30 42 1 23 24
M  V30 43 1 39 40
M  V30 END BOND
M  V30 END CTAB
M  END
>  <Molecule ChEMBL ID>
CHEMBL4460064

>  <Smiles>
CCC/C(=C\c1cc(OCc2ccc3nc(C(F)(F)F)cc(OC)c3c2)ccc1OCc1ccccc1)C(=O)O

>  <IC50_nM>
7200

>  <Assay Description>
Antagonist actvity in pFA-GAL4-DBD fused PPARgamma LBD (unknown origin) transfected in HEK293T cells assessed as inhibition of rosiglitazone-induced PPARgamma transactivation incubated for 24 hrs by luciferase reporter gene assay

$$$$
CHEMBL3598140
Actelion Java MolfileCreator 2.0

  0  0  0  0  0  0              0 V3000
M  V30 BEGIN CTAB
M  V30 COUNTS 31 34 0 0 0
M  V30 BEGIN ATOM
M  V30 1 Cl -0.866 0.9999 0.0 0
M  V30 2 C 0.0 1.4999 0.0 0
M  V30 3 C 0.866 0.9999 0.0 0
M  V30 4 C 0.0 2.4999 0.0 0
M  V30 5 C 1.732 1.5 0.0 0
M  V30 6 C 0.866 0.0 0.0 0
M  V30 7 C 0.866 3.0 0.0 0
M  V30 8 C 1.732 2.4999 0.0 0
M  V30 9 C 2.598 1.0 0.0 0
M  V30 10 O 1.732 -0.5 0.0 0
M  V30 11 N 0.0 -0.5 0.0 0
M  V30 12 F 3.098 1.866 0.0 0
M  V30 13 F 3.4641 0.5 0.0 0
M  V30 14 F 2.098 0.1339 0.0 0
M  V30 15 N -0.9135 -0.0932 0.0 0
M  V30 16 C -0.1045 -1.4945 0.0 0
M  V30 17 C -1.5826 -0.8364 0.0 0
M  V30 18 C -1.0826 -1.7024 0.0 0
M  V30 19 C 0.5646 -2.2376 0.0 0
M  V30 20 C -2.5771 -0.7318 0.0 0
M  V30 21 C -1.3916 -2.6534 0.0 0
M  V30 22 C 0.2555 -3.1887 0.0 0
M  V30 23 C -2.9839 0.1816 0.0 0
M  V30 24 C -3.1649 -1.5408 0.0 0
M  V30 25 C -0.7225 -3.3966 0.0 0
M  V30 26 C -3.9784 0.2861 0.0 0
M  V30 27 C -4.1595 -1.4363 0.0 0
M  V30 28 C -4.5662 -0.5228 0.0 0
M  V30 29 C -5.5607 -0.4182 0.0 0
M  V30 30 O -5.9675 0.4952 0.0 0
M  V30 31 O -6.1485 -1.2273 0.0 0
M  V30 END ATOM
M  V30 BEGIN BOND
M  V30 1 1 1 2
M  V30 2 2 2 3
M  V30 3 1 2 4
M  V30 4 1 3 5
M  V30 5 1 3 6
M  V30 6 2 4 7
M  V30 7 2 5 8
M  V30 8 1 5 9
M  V30 9 2 6 10
M  V30 10 1 6 11
M  V30 11 1 9 12
M  V30 12 1 9 13
M  V30 13 1 9 14
M  V30 14 1 11 15
M  V30 15 1 11 16
M  V30 16 2 15 17
M  V30 17 2 16 18
M  V30 18 1 16 19
M  V30 19 1 17 20
M  V30 20 1 18 21
M  V30 21 2 19 22
M  V30 22 2 20 23
M  V30 23 1 20 24
M  V30 24 2 21 25
M  V30 25 1 23 26
M  V30 26 2 24 27
M  V30 27 2 26 28
M  V30 28 1 28 29
M  V30 29 2 29 30
M  V30 30 1 29 31
M  V30 31 1 7 8
M  V30 32 1 17 18
M  V30 33 1 22 25
M  V30 34 1 27 28
M  V30 END BOND
M  V30 END CTAB
M  END
>  <Molecule ChEMBL ID>
CHEMBL3598140

>  <Smiles>
O=C(O)c1ccc(-c2nn(C(=O)c3c(Cl)cccc3C(F)(F)F)c3ccccc23)cc1

>  <IC50_nM>
7200

>  <Assay Description>
Inverse agonist activity at His6-tagged PPARgamma LBD (unknown origin) assessed as inhibition of rosiglitazone-induced N-terminal biotinylated co-activator SRC1 box2 peptide recruitment measured after 30 mins by TR-FRET assay

$$$$
CHEMBL1090188
Actelion Java MolfileCreator 2.0

  0  0  0  0  0  0              0 V3000
M  V30 BEGIN CTAB
M  V30 COUNTS 38 41 0 0 0
M  V30 BEGIN ATOM
M  V30 1 O 5.1961 1.4999 0.0 0
M  V30 2 C 4.3301 0.9999 0.0 0
M  V30 3 O 4.3301 0.0 0.0 0
M  V30 4 N 3.4641 1.4999 0.0 0
M  V30 5 C 5.1961 -0.5 0.0 0
M  V30 6 C 2.598 1.0 0.0 0
M  V30 7 C 3.4641 2.4999 0.0 0
M  V30 8 C 6.0621 0.0 0.0 0
M  V30 9 C 5.1961 -1.5 0.0 0
M  V30 10 C 1.732 1.5 0.0 0
M  V30 11 C 4.3301 2.9999 0.0 0
M  V30 12 C 6.9282 -0.5 0.0 0
M  V30 13 C 6.0621 -2.0 0.0 0
M  V30 14 C 1.732 2.5 0.0 0
M  V30 15 C 0.866 1.0 0.0 0
M  V30 16 O 5.1961 2.4999 0.0 0
M  V30 17 O 4.3301 3.9999 0.0 0
M  V30 18 C 6.9282 -1.5 0.0 0
M  V30 19 C 0.866 3.0 0.0 0
M  V30 20 C 0.0 1.5 0.0 0
M  V30 21 C 7.7942 -2.0 0.0 0
M  V30 22 O 0.866 4.0 0.0 0
M  V30 23 C 0.0 2.5 0.0 0
M  V30 24 C 1.732 4.5 0.0 0
M  V30 25 C 1.732 5.5 0.0 0
M  V30 26 N 2.541 6.0877 0.0 0
M  V30 27 C 0.923 6.0877 0.0 0
M  V30 28 C 2.232 7.0388 0.0 0
M  V30 29 O 1.232 7.0388 0.0 0
M  V30 30 C -0.028 5.7787 0.0 0
M  V30 31 C 2.8198 7.8478 0.0 0
M  V30 32 C 3.8143 7.7433 0.0 0
M  V30 33 C 2.413 8.7614 0.0 0
M  V30 34 C 4.4021 8.5523 0.0 0
M  V30 35 C 3.0008 9.5704 0.0 0
M  V30 36 C 3.9954 9.4658 0.0 0
M  V30 37 C 4.5831 10.2749 0.0 0
M  V30 38 N 5.1709 11.0839 0.0 0
M  V30 END ATOM
M  V30 BEGIN BOND
M  V30 1 2 1 2
M  V30 2 1 2 3
M  V30 3 1 2 4
M  V30 4 1 3 5
M  V30 5 1 4 6
M  V30 6 1 4 7
M  V30 7 2 5 8
M  V30 8 1 5 9
M  V30 9 1 6 10
M  V30 10 1 7 11
M  V30 11 1 8 12
M  V30 12 2 9 13
M  V30 13 2 10 14
M  V30 14 1 10 15
M  V30 15 2 11 16
M  V30 16 1 11 17
M  V30 17 2 12 18
M  V30 18 1 14 19
M  V30 19 2 15 20
M  V30 20 1 18 21
M  V30 21 1 19 22
M  V30 22 2 19 23
M  V30 23 1 22 24
M  V30 24 1 24 25
M  V30 25 1 25 26
M  V30 26 2 25 27
M  V30 27 2 26 28
M  V30 28 1 27 29
M  V30 29 1 27 30
M  V30 30 1 28 31
M  V30 31 2 31 32
M  V30 32 1 31 33
M  V30 33 1 32 34
M  V30 34 2 33 35
M  V30 35 2 34 36
M  V30 36 1 36 37
M  V30 37 3 37 38
M  V30 38 1 13 18
M  V30 39 1 20 23
M  V30 40 1 28 29
M  V30 41 1 35 36
M  V30 END BOND
M  V30 END CTAB
M  END
>  <Molecule ChEMBL ID>
CHEMBL1090188

>  <Smiles>
Cc1ccc(OC(=O)N(CC(=O)O)Cc2cccc(OCc3nc(-c4ccc(C#N)cc4)oc3C)c2)cc1

>  <IC50_nM>
7257

>  <Assay Description>
Binding affinity to human His-tagged PPARgamma LBD (Q203-Y477) expressed in Escherichia coli BL21 (DE3) by fluorescence polarization assay

$$$$
CHEMBL5273751
Actelion Java MolfileCreator 2.0

  0  0  0  0  0  0              0 V3000
M  V30 BEGIN CTAB
M  V30 COUNTS 28 30 0 0 0
M  V30 BEGIN ATOM
M  V30 1 Cl 6.0621 -1.9999 0.0 0
M  V30 2 C 5.1961 -1.4999 0.0 0
M  V30 3 C 5.1961 -0.5 0.0 0
M  V30 4 C 4.3301 -1.9999 0.0 0
M  V30 5 C 6.0621 0.0 0.0 0
M  V30 6 C 4.3301 0.0 0.0 0
M  V30 7 C 3.4641 -1.5 0.0 0
M  V30 8 O 6.0621 0.9999 0.0 0
M  V30 9 N 6.9282 -0.5 0.0 0
M  V30 10 C 3.4641 -0.5 0.0 0
M  V30 11 C 7.7942 0.0 0.0 0
M  V30 12 C 2.598 0.0 0.0 0
M  V30 13 C 8.6602 -0.5 0.0 0
M  V30 14 C 7.7942 0.9999 0.0 0
M  V30 15 O 2.598 1.0 0.0 0
M  V30 16 N 1.732 -0.5 0.0 0
M  V30 17 C 9.5262 0.0 0.0 0
M  V30 18 C 8.6602 1.4999 0.0 0
M  V30 19 C 0.866 0.0 0.0 0
M  V30 20 C 9.5262 0.9999 0.0 0
M  V30 21 C 0.0 -0.5 0.0 0
M  V30 22 C -0.866 0.0 0.0 0
M  V30 23 C 0.0 -1.4999 0.0 0
M  V30 24 C -1.732 -0.4999 0.0 0
M  V30 25 C -0.866 -1.9999 0.0 0
M  V30 26 F -2.598 0.0 0.0 0
M  V30 27 C -1.732 -1.4999 0.0 0
M  V30 28 F -2.598 -1.9999 0.0 0
M  V30 END ATOM
M  V30 BEGIN BOND
M  V30 1 1 1 2
M  V30 2 2 2 3
M  V30 3 1 2 4
M  V30 4 1 3 5
M  V30 5 1 3 6
M  V30 6 2 4 7
M  V30 7 2 5 8
M  V30 8 1 5 9
M  V30 9 2 6 10
M  V30 10 1 9 11
M  V30 11 1 10 12
M  V30 12 2 11 13
M  V30 13 1 11 14
M  V30 14 2 12 15
M  V30 15 1 12 16
M  V30 16 1 13 17
M  V30 17 2 14 18
M  V30 18 1 16 19
M  V30 19 2 17 20
M  V30 20 1 19 21
M  V30 21 2 21 22
M  V30 22 1 21 23
M  V30 23 1 22 24
M  V30 24 2 23 25
M  V30 25 1 24 26
M  V30 26 2 24 27
M  V30 27 1 27 28
M  V30 28 1 7 10
M  V30 29 1 18 20
M  V30 30 1 25 27
M  V30 END BOND
M  V30 END CTAB
M  END
>  <Molecule ChEMBL ID>
CHEMBL5273751

>  <Smiles>
O=C(NCc1ccc(F)c(F)c1)c1ccc(Cl)c(C(=O)Nc2ccccc2)c1

>  <IC50_nM>
7400

>  <Assay Description>
Inverse agonist activity at human PPARgamma in human RT112/84 transfected with NLuc-fused FABP4 assessed as reduction in PPARgamma transactivation incubated for 6 to 18 hrs by Nano-Glo luciferase assay

$$$$
CHEMBL595
Actelion Java MolfileCreator 2.0

  0  0  0  0  0  0              0 V3000
M  V30 BEGIN CTAB
M  V30 COUNTS 25 27 0 0 0
M  V30 BEGIN ATOM
M  V30 1 S 5.2531 -3.5877 0.0 0
M  V30 2 C 5.5621 -4.5388 0.0 0
M  V30 3 C 6.0621 -3.0 0.0 0 CFG=2
M  V30 4 O 4.9743 -5.3478 0.0 0
M  V30 5 N 6.5621 -4.5388 0.0 0
M  V30 6 C 6.8711 -3.5877 0.0 0
M  V30 7 C 6.0621 -1.9999 0.0 0
M  V30 8 O 7.8222 -3.2787 0.0 0
M  V30 9 C 5.1961 -1.4999 0.0 0
M  V30 10 C 5.1961 -0.5 0.0 0
M  V30 11 C 4.3301 -1.9999 0.0 0
M  V30 12 C 4.3301 0.0 0.0 0
M  V30 13 C 3.4641 -1.5 0.0 0
M  V30 14 C 3.4641 -0.5 0.0 0
M  V30 15 O 2.598 0.0 0.0 0
M  V30 16 C 1.732 -0.5 0.0 0
M  V30 17 C 0.866 0.0 0.0 0
M  V30 18 C 0.0 -0.5 0.0 0
M  V30 19 N -0.866 0.0 0.0 0
M  V30 20 C 0.0 -1.4999 0.0 0
M  V30 21 C -1.732 -0.4999 0.0 0
M  V30 22 C -0.866 -1.9999 0.0 0
M  V30 23 C -1.732 -1.4999 0.0 0
M  V30 24 C -2.598 -1.9999 0.0 0
M  V30 25 C -2.598 -2.9999 0.0 0
M  V30 END ATOM
M  V30 BEGIN BOND
M  V30 1 1 1 2
M  V30 2 1 1 3
M  V30 3 2 2 4
M  V30 4 1 2 5
M  V30 5 1 3 6
M  V30 6 1 3 7 CFG=1
M  V30 7 2 6 8
M  V30 8 1 7 9
M  V30 9 2 9 10
M  V30 10 1 9 11
M  V30 11 1 10 12
M  V30 12 2 11 13
M  V30 13 2 12 14
M  V30 14 1 14 15
M  V30 15 1 15 16
M  V30 16 1 16 17
M  V30 17 1 17 18
M  V30 18 2 18 19
M  V30 19 1 18 20
M  V30 20 1 19 21
M  V30 21 2 20 22
M  V30 22 2 21 23
M  V30 23 1 23 24
M  V30 24 1 24 25
M  V30 25 1 5 6
M  V30 26 1 13 14
M  V30 27 1 22 23
M  V30 END BOND
M  V30 BEGIN COLLECTION
M  V30 MDLV30/STERAC1 ATOMS=(1 3)
M  V30 END COLLECTION
M  V30 END CTAB
M  END
>  <Molecule ChEMBL ID>
CHEMBL595

>  <Smiles>
CCc1ccc(CCOc2ccc(CC3SC(=O)NC3=O)cc2)nc1

>  <IC50_nM>
7400

>  <Assay Description>
Receptor binding affinity to human Peroxisome proliferator activated receptor gamma against [3H]ragalitazar radioligand

$$$$
CHEMBL4546295
Actelion Java MolfileCreator 2.0

  0  0  0  0  0  0              0 V3000
M  V30 BEGIN CTAB
M  V30 COUNTS 43 47 0 0 0
M  V30 BEGIN ATOM
M  V30 1 F 8.8923 12.75 0.0 0
M  V30 2 C 10.3923 12.7499 0.0 0
M  V30 3 F 10.3923 14.25 0.0 0
M  V30 4 F 11.8923 12.7499 0.0 0
M  V30 5 C 10.3923 11.25 0.0 0
M  V30 6 N 9.0932 10.5 0.0 0
M  V30 7 C 11.6913 10.4999 0.0 0
M  V30 8 C 9.0932 8.9999 0.0 0
M  V30 9 C 11.6913 8.9999 0.0 0
M  V30 10 C 10.3923 8.25 0.0 0
M  V30 11 C 7.7942 8.25 0.0 0
M  V30 12 O 12.9903 8.2499 0.0 0
M  V30 13 C 10.3923 6.75 0.0 0
M  V30 14 C 7.7942 6.75 0.0 0
M  V30 15 C 14.2894 8.9999 0.0 0
M  V30 16 C 9.0932 5.9999 0.0 0
M  V30 17 C 9.0932 4.4999 0.0 0
M  V30 18 O 7.7942 3.75 0.0 0
M  V30 19 C 7.7942 2.25 0.0 0
M  V30 20 C 6.4951 1.5 0.0 0
M  V30 21 C 9.0932 1.4999 0.0 0
M  V30 22 C 6.4951 0.0 0.0 0
M  V30 23 C 9.0932 0.0 0.0 0
M  V30 24 C 7.7942 -0.75 0.0 0
M  V30 25 C 5.1961 -0.75 0.0 0
M  V30 26 O 7.7942 -2.25 0.0 0
M  V30 27 C 3.8971 0.0 0.0 0
M  V30 28 C 6.4951 -3.0 0.0 0
M  V30 29 C 2.598 -0.75 0.0 0
M  V30 30 C 3.8971 1.4999 0.0 0
M  V30 31 C 6.4951 -4.5 0.0 0
M  V30 32 O 2.598 -2.25 0.0 0
M  V30 33 O 1.299 0.0 0.0 0
M  V30 34 C 2.598 2.2499 0.0 0
M  V30 35 C 5.1961 -5.2499 0.0 0
M  V30 36 C 7.7942 -5.25 0.0 0
M  V30 37 C 2.598 3.75 0.0 0
M  V30 38 C 5.1961 -6.7499 0.0 0
M  V30 39 C 7.7942 -6.75 0.0 0
M  V30 40 C 1.848 5.049 0.0 0
M  V30 41 C 3.348 5.049 0.0 0
M  V30 42 N 6.4951 -7.5 0.0 0
M  V30 43 C 6.4951 -9.0 0.0 0
M  V30 END ATOM
M  V30 BEGIN BOND
M  V30 1 1 1 2
M  V30 2 1 2 3
M  V30 3 1 2 4
M  V30 4 1 2 5
M  V30 5 2 5 6
M  V30 6 1 5 7
M  V30 7 1 6 8
M  V30 8 2 7 9
M  V30 9 1 8 10
M  V30 10 2 8 11
M  V30 11 1 9 12
M  V30 12 2 10 13
M  V30 13 1 11 14
M  V30 14 1 12 15
M  V30 15 1 13 16
M  V30 16 1 16 17
M  V30 17 1 17 18
M  V30 18 1 18 19
M  V30 19 2 19 20
M  V30 20 1 19 21
M  V30 21 1 20 22
M  V30 22 2 21 23
M  V30 23 2 22 24
M  V30 24 1 22 25
M  V30 25 1 24 26
M  V30 26 2 25 27
M  V30 27 1 26 28
M  V30 28 1 27 29
M  V30 29 1 27 30
M  V30 30 1 28 31
M  V30 31 2 29 32
M  V30 32 1 29 33
M  V30 33 1 30 34
M  V30 34 1 31 35
M  V30 35 1 31 36
M  V30 36 1 34 37
M  V30 37 1 35 38
M  V30 38 1 36 39
M  V30 39 1 37 40
M  V30 40 1 37 41
M  V30 41 1 38 42
M  V30 42 1 42 43
M  V30 43 1 9 10
M  V30 44 2 14 16
M  V30 45 1 23 24
M  V30 46 1 39 42
M  V30 47 1 40 41
M  V30 END BOND
M  V30 END CTAB
M  END
>  <Molecule ChEMBL ID>
CHEMBL4546295

>  <Smiles>
COc1cc(C(F)(F)F)nc2ccc(COc3ccc(OCC4CCN(C)CC4)c(/C=C(\CCC4CC4)C(=O)O)c3)cc12

>  <IC50_nM>
7500

>  <Assay Description>
Antagonist actvity in pFA-GAL4-DBD fused PPARgamma LBD (unknown origin) transfected in HEK293T cells assessed as inhibition of rosiglitazone-induced PPARgamma transactivation incubated for 24 hrs by luciferase reporter gene assay

$$$$
CHEMBL234663
Actelion Java MolfileCreator 2.0

  0  0  0  0  0  0              0 V3000
M  V30 BEGIN CTAB
M  V30 COUNTS 30 33 0 0 0
M  V30 BEGIN ATOM
M  V30 1 S 6.0621 -1.9999 0.0 0
M  V30 2 C 5.1961 -1.4999 0.0 0
M  V30 3 C 6.0621 -2.9999 0.0 0
M  V30 4 C 4.3301 -1.9999 0.0 0
M  V30 5 C 5.1961 -0.4999 0.0 0
M  V30 6 C 6.9282 -3.4999 0.0 0
M  V30 7 C 3.4641 -1.4999 0.0 0
M  V30 8 C 4.1222 -2.9781 0.0 0
M  V30 9 C 4.3301 0.0 0.0 0
M  V30 10 C 6.9282 -4.5 0.0 0
M  V30 11 C 7.7942 -3.0 0.0 0
M  V30 12 C 3.4641 -0.5 0.0 0
M  V30 13 C 2.7209 -2.1691 0.0 0
M  V30 14 C 3.1276 -3.0826 0.0 0
M  V30 15 C 7.7942 -5.0 0.0 0
M  V30 16 C 8.6602 -3.5 0.0 0
M  V30 17 O 2.598 0.0 0.0 0
M  V30 18 C 8.6602 -4.5 0.0 0
M  V30 19 C 1.732 -0.5 0.0 0
M  V30 20 O 9.5262 -5.0 0.0 0
M  V30 21 C 0.866 0.0 0.0 0
M  V30 22 C 9.5262 -6.0 0.0 0
M  V30 23 O 0.866 1.0 0.0 0
M  V30 24 O 0.0 -0.5 0.0 0
M  V30 25 C 10.3923 -6.5 0.0 0
M  V30 26 C 10.3923 -7.5 0.0 0
M  V30 27 C 11.2583 -6.0 0.0 0
M  V30 28 C 11.2583 -8.0 0.0 0
M  V30 29 C 12.1243 -6.5 0.0 0
M  V30 30 C 12.1243 -7.5 0.0 0
M  V30 END ATOM
M  V30 BEGIN BOND
M  V30 1 1 1 2
M  V30 2 1 1 3
M  V30 3 2 2 4
M  V30 4 1 2 5
M  V30 5 1 3 6
M  V30 6 1 4 7
M  V30 7 1 4 8
M  V30 8 2 5 9
M  V30 9 2 6 10
M  V30 10 1 6 11
M  V30 11 2 7 12
M  V30 12 1 7 13
M  V30 13 1 8 14
M  V30 14 1 10 15
M  V30 15 2 11 16
M  V30 16 1 12 17
M  V30 17 2 15 18
M  V30 18 1 17 19
M  V30 19 1 18 20
M  V30 20 1 19 21
M  V30 21 1 20 22
M  V30 22 2 21 23
M  V30 23 1 21 24
M  V30 24 1 22 25
M  V30 25 2 25 26
M  V30 26 1 25 27
M  V30 27 1 26 28
M  V30 28 2 27 29
M  V30 29 2 28 30
M  V30 30 1 9 12
M  V30 31 1 13 14
M  V30 32 1 16 18
M  V30 33 1 29 30
M  V30 END BOND
M  V30 END CTAB
M  END
>  <Molecule ChEMBL ID>
CHEMBL234663

>  <Smiles>
O=C(O)COc1ccc(SCc2ccc(OCc3ccccc3)cc2)c2c1CCC2

>  <IC50_nM>
7570

>  <Assay Description>
Displacement of [3H]5-(4-(3-(5-methyl-2-phenyloxazol-4-yl)propanoyl)benzyl)thiazolidine-2,4-dione from human PPARgamma after 2 hrs by SPA assay

$$$$
CHEMBL234587
Actelion Java MolfileCreator 2.0

  0  0  0  0  0  0              0 V3000
M  V30 BEGIN CTAB
M  V30 COUNTS 34 37 0 0 0
M  V30 BEGIN ATOM
M  V30 1 S 4.1807 0.3364 0.0 0
M  V30 2 C 3.6807 1.2024 0.0 0
M  V30 3 C 3.5116 -0.4067 0.0 0
M  V30 4 C 2.7026 0.9945 0.0 0
M  V30 5 C 3.9897 2.1534 0.0 0
M  V30 6 C 2.598 0.0 0.0 0
M  V30 7 C 2.0334 1.7376 0.0 0
M  V30 8 C 3.3206 2.8966 0.0 0
M  V30 9 C 1.732 -0.5 0.0 0
M  V30 10 C 2.3424 2.6887 0.0 0
M  V30 11 O 3.6296 3.8476 0.0 0
M  V30 12 C 0.866 0.0 0.0 0
M  V30 13 C 1.6733 3.4318 0.0 0
M  V30 14 C 4.6078 4.0556 0.0 0
M  V30 15 O 0.866 1.0 0.0 0
M  V30 16 O 0.0 -0.5 0.0 0
M  V30 17 C 4.9168 5.0066 0.0 0
M  V30 18 C 5.8949 5.2145 0.0 0
M  V30 19 C 4.2476 5.7498 0.0 0
M  V30 20 C 6.2039 6.1656 0.0 0
M  V30 21 C 6.564 4.4714 0.0 0
M  V30 22 C 4.5567 6.7008 0.0 0
M  V30 23 C 5.5348 6.9087 0.0 0
M  V30 24 O 6.255 3.5203 0.0 0
M  V30 25 C 6.9242 2.7772 0.0 0
M  V30 26 C 6.6151 1.8261 0.0 0
M  V30 27 C 7.9023 2.9851 0.0 0
M  V30 28 C 7.2843 1.083 0.0 0
M  V30 29 C 8.5714 2.2419 0.0 0
M  V30 30 C 8.2624 1.2909 0.0 0
M  V30 31 C 8.9316 0.5477 0.0 0
M  V30 32 F 9.6747 1.2169 0.0 0
M  V30 33 F 9.6007 -0.1953 0.0 0
M  V30 34 F 8.1884 -0.1213 0.0 0
M  V30 END ATOM
M  V30 BEGIN BOND
M  V30 1 1 1 2
M  V30 2 1 1 3
M  V30 3 2 2 4
M  V30 4 1 2 5
M  V30 5 2 3 6
M  V30 6 1 4 7
M  V30 7 2 5 8
M  V30 8 1 6 9
M  V30 9 2 7 10
M  V30 10 1 8 11
M  V30 11 1 9 12
M  V30 12 1 10 13
M  V30 13 1 11 14
M  V30 14 2 12 15
M  V30 15 1 12 16
M  V30 16 1 14 17
M  V30 17 2 17 18
M  V30 18 1 17 19
M  V30 19 1 18 20
M  V30 20 1 18 21
M  V30 21 2 19 22
M  V30 22 2 20 23
M  V30 23 1 21 24
M  V30 24 1 24 25
M  V30 25 2 25 26
M  V30 26 1 25 27
M  V30 27 1 26 28
M  V30 28 2 27 29
M  V30 29 2 28 30
M  V30 30 1 30 31
M  V30 31 1 31 32
M  V30 32 1 31 33
M  V30 33 1 31 34
M  V30 34 1 4 6
M  V30 35 1 8 10
M  V30 36 1 22 23
M  V30 37 1 29 30
M  V30 END BOND
M  V30 END CTAB
M  END
>  <Molecule ChEMBL ID>
CHEMBL234587

>  <Smiles>
Cc1cc2c(CC(=O)O)csc2cc1OCc1ccccc1COc1ccc(C(F)(F)F)cc1

>  <IC50_nM>
7580

>  <Assay Description>
Displacement of [3H]5-(4-(3-(5-methyl-2-phenyloxazol-4-yl)propanoyl)benzyl)thiazolidine-2,4-dione from human PPARgamma after 2 hrs by SPA

$$$$
CHEMBL234587
Actelion Java MolfileCreator 2.0

  0  0  0  0  0  0              0 V3000
M  V30 BEGIN CTAB
M  V30 COUNTS 34 37 0 0 0
M  V30 BEGIN ATOM
M  V30 1 S 4.1807 0.3364 0.0 0
M  V30 2 C 3.6807 1.2024 0.0 0
M  V30 3 C 3.5116 -0.4067 0.0 0
M  V30 4 C 2.7026 0.9945 0.0 0
M  V30 5 C 3.9897 2.1534 0.0 0
M  V30 6 C 2.598 0.0 0.0 0
M  V30 7 C 2.0334 1.7376 0.0 0
M  V30 8 C 3.3206 2.8966 0.0 0
M  V30 9 C 1.732 -0.5 0.0 0
M  V30 10 C 2.3424 2.6887 0.0 0
M  V30 11 O 3.6296 3.8476 0.0 0
M  V30 12 C 0.866 0.0 0.0 0
M  V30 13 C 1.6733 3.4318 0.0 0
M  V30 14 C 4.6078 4.0556 0.0 0
M  V30 15 O 0.866 1.0 0.0 0
M  V30 16 O 0.0 -0.5 0.0 0
M  V30 17 C 4.9168 5.0066 0.0 0
M  V30 18 C 5.8949 5.2145 0.0 0
M  V30 19 C 4.2476 5.7498 0.0 0
M  V30 20 C 6.2039 6.1656 0.0 0
M  V30 21 C 6.564 4.4714 0.0 0
M  V30 22 C 4.5567 6.7008 0.0 0
M  V30 23 C 5.5348 6.9087 0.0 0
M  V30 24 O 6.255 3.5203 0.0 0
M  V30 25 C 6.9242 2.7772 0.0 0
M  V30 26 C 6.6151 1.8261 0.0 0
M  V30 27 C 7.9023 2.9851 0.0 0
M  V30 28 C 7.2843 1.083 0.0 0
M  V30 29 C 8.5714 2.2419 0.0 0
M  V30 30 C 8.2624 1.2909 0.0 0
M  V30 31 C 8.9316 0.5477 0.0 0
M  V30 32 F 9.6747 1.2169 0.0 0
M  V30 33 F 9.6007 -0.1953 0.0 0
M  V30 34 F 8.1884 -0.1213 0.0 0
M  V30 END ATOM
M  V30 BEGIN BOND
M  V30 1 1 1 2
M  V30 2 1 1 3
M  V30 3 2 2 4
M  V30 4 1 2 5
M  V30 5 2 3 6
M  V30 6 1 4 7
M  V30 7 2 5 8
M  V30 8 1 6 9
M  V30 9 2 7 10
M  V30 10 1 8 11
M  V30 11 1 9 12
M  V30 12 1 10 13
M  V30 13 1 11 14
M  V30 14 2 12 15
M  V30 15 1 12 16
M  V30 16 1 14 17
M  V30 17 2 17 18
M  V30 18 1 17 19
M  V30 19 1 18 20
M  V30 20 1 18 21
M  V30 21 2 19 22
M  V30 22 2 20 23
M  V30 23 1 21 24
M  V30 24 1 24 25
M  V30 25 2 25 26
M  V30 26 1 25 27
M  V30 27 1 26 28
M  V30 28 2 27 29
M  V30 29 2 28 30
M  V30 30 1 30 31
M  V30 31 1 31 32
M  V30 32 1 31 33
M  V30 33 1 31 34
M  V30 34 1 4 6
M  V30 35 1 8 10
M  V30 36 1 22 23
M  V30 37 1 29 30
M  V30 END BOND
M  V30 END CTAB
M  END
>  <Molecule ChEMBL ID>
CHEMBL234587

>  <Smiles>
Cc1cc2c(CC(=O)O)csc2cc1OCc1ccccc1COc1ccc(C(F)(F)F)cc1

>  <IC50_nM>
7585.78

>  <Assay Description>
Agonist activity at PPARgamma

$$$$
CHEMBL4211975
Actelion Java MolfileCreator 2.0

  0  0  0  0  0  0              0 V3000
M  V30 BEGIN CTAB
M  V30 COUNTS 26 28 0 0 0
M  V30 BEGIN ATOM
M  V30 1 O 6.0621 1.0 0.0 0
M  V30 2 C 5.1961 1.5 0.0 0
M  V30 3 O 5.1961 2.5 0.0 0
M  V30 4 C 4.3301 1.0 0.0 0
M  V30 5 C 4.3301 3.0 0.0 0
M  V30 6 C 3.4641 1.5 0.0 0
M  V30 7 C 4.3301 0.0 0.0 0
M  V30 8 C 2.598 0.9999 0.0 0
M  V30 9 C 3.4641 -0.4999 0.0 0
M  V30 10 C 2.598 0.0 0.0 0
M  V30 11 O 1.732 -0.5 0.0 0
M  V30 12 C 0.866 0.0 0.0 0
M  V30 13 C 0.0 -0.5 0.0 0
M  V30 14 O -0.9135 -0.0932 0.0 0
M  V30 15 C -0.1045 -1.4945 0.0 0
M  V30 16 C -1.5826 -0.8364 0.0 0
M  V30 17 N -1.0826 -1.7024 0.0 0
M  V30 18 C 0.6386 -2.1636 0.0 0
M  V30 19 C -2.5771 -0.7318 0.0 0
M  V30 20 C -2.9839 0.1816 0.0 0
M  V30 21 C -3.1649 -1.5408 0.0 0
M  V30 22 C -3.9784 0.2861 0.0 0
M  V30 23 C -4.1595 -1.4363 0.0 0
M  V30 24 O -4.3851 1.1997 0.0 0
M  V30 25 C -4.5662 -0.5228 0.0 0
M  V30 26 C -5.3797 1.3042 0.0 0
M  V30 END ATOM
M  V30 BEGIN BOND
M  V30 1 2 1 2
M  V30 2 1 2 3
M  V30 3 1 2 4
M  V30 4 1 3 5
M  V30 5 2 4 6
M  V30 6 1 4 7
M  V30 7 1 6 8
M  V30 8 2 7 9
M  V30 9 2 8 10
M  V30 10 1 10 11
M  V30 11 1 11 12
M  V30 12 1 12 13
M  V30 13 1 13 14
M  V30 14 2 13 15
M  V30 15 1 14 16
M  V30 16 1 15 17
M  V30 17 1 15 18
M  V30 18 1 16 19
M  V30 19 2 19 20
M  V30 20 1 19 21
M  V30 21 1 20 22
M  V30 22 2 21 23
M  V30 23 1 22 24
M  V30 24 2 22 25
M  V30 25 1 24 26
M  V30 26 1 9 10
M  V30 27 2 16 17
M  V30 28 1 23 25
M  V30 END BOND
M  V30 END CTAB
M  END
>  <Molecule ChEMBL ID>
CHEMBL4211975

>  <Smiles>
COC(=O)c1ccc(OCc2oc(-c3cccc(OC)c3)nc2C)cc1

>  <IC50_nM>
7600

>  <Assay Description>
Antagonist activity at CMV-fused PPARgamma-LBD-GAL4-DBD (unknown origin) expressed in HEK293T cells assessed as inhibition of rosiglitazone-induced receptor transactivation after 16 hrs by bright-Glo luciferase reporter gene assay

$$$$
CHEMBL4202476
Actelion Java MolfileCreator 2.0

  0  0  0  0  0  0              0 V3000
M  V30 BEGIN CTAB
M  V30 COUNTS 26 28 0 0 0
M  V30 BEGIN ATOM
M  V30 1 O 4.3301 3.0 0.0 0
M  V30 2 C 3.4641 2.5 0.0 0
M  V30 3 O 2.598 3.0 0.0 0
M  V30 4 C 3.4641 1.5 0.0 0
M  V30 5 C 1.732 2.5 0.0 0
M  V30 6 C 2.598 1.0 0.0 0
M  V30 7 C 4.3301 1.0 0.0 0
M  V30 8 C 2.598 0.0 0.0 0
M  V30 9 C 4.3301 0.0 0.0 0
M  V30 10 O 1.732 -0.5 0.0 0
M  V30 11 C 3.4641 -0.4999 0.0 0
M  V30 12 C 0.866 0.0 0.0 0
M  V30 13 C 0.0 -0.5 0.0 0
M  V30 14 O -0.9135 -0.0932 0.0 0
M  V30 15 C -0.1045 -1.4945 0.0 0
M  V30 16 C -1.5826 -0.8364 0.0 0
M  V30 17 N -1.0826 -1.7024 0.0 0
M  V30 18 C 0.6386 -2.1636 0.0 0
M  V30 19 C -2.5771 -0.7318 0.0 0
M  V30 20 C -2.9839 0.1816 0.0 0
M  V30 21 C -3.1649 -1.5408 0.0 0
M  V30 22 O -2.3961 0.9906 0.0 0
M  V30 23 C -3.9784 0.2861 0.0 0
M  V30 24 C -4.1595 -1.4363 0.0 0
M  V30 25 C -2.8028 1.9042 0.0 0
M  V30 26 C -4.5662 -0.5228 0.0 0
M  V30 END ATOM
M  V30 BEGIN BOND
M  V30 1 2 1 2
M  V30 2 1 2 3
M  V30 3 1 2 4
M  V30 4 1 3 5
M  V30 5 2 4 6
M  V30 6 1 4 7
M  V30 7 1 6 8
M  V30 8 2 7 9
M  V30 9 1 8 10
M  V30 10 2 8 11
M  V30 11 1 10 12
M  V30 12 1 12 13
M  V30 13 1 13 14
M  V30 14 2 13 15
M  V30 15 1 14 16
M  V30 16 1 15 17
M  V30 17 1 15 18
M  V30 18 1 16 19
M  V30 19 2 19 20
M  V30 20 1 19 21
M  V30 21 1 20 22
M  V30 22 1 20 23
M  V30 23 2 21 24
M  V30 24 1 22 25
M  V30 25 2 23 26
M  V30 26 1 9 11
M  V30 27 2 16 17
M  V30 28 1 24 26
M  V30 END BOND
M  V30 END CTAB
M  END
>  <Molecule ChEMBL ID>
CHEMBL4202476

>  <Smiles>
COC(=O)c1cccc(OCc2oc(-c3ccccc3OC)nc2C)c1

>  <IC50_nM>
7600

>  <Assay Description>
Antagonist activity at CMV-fused PPARgamma-LBD-GAL4-DBD (unknown origin) expressed in HEK293T cells assessed as inhibition of rosiglitazone-induced receptor transactivation after 16 hrs by bright-Glo luciferase reporter gene assay

$$$$
CHEMBL258428
Actelion Java MolfileCreator 2.0

  0  0  0  0  0  0              0 V3000
M  V30 BEGIN CTAB
M  V30 COUNTS 37 40 0 0 0
M  V30 BEGIN ATOM
M  V30 1 O 4.3301 0.0 0.0 0
M  V30 2 C 3.4641 -0.5 0.0 0
M  V30 3 O 2.598 0.0 0.0 0
M  V30 4 N 3.4641 -1.5 0.0 0
M  V30 5 C 1.732 -0.5 0.0 0
M  V30 6 C 2.598 -2.0 0.0 0
M  V30 7 C 4.3301 -1.9999 0.0 0
M  V30 8 C 0.866 0.0 0.0 0
M  V30 9 C 2.598 -3.0 0.0 0
M  V30 10 C 4.3301 -2.9999 0.0 0
M  V30 11 C 0.866 1.0 0.0 0
M  V30 12 C 0.0 -0.5 0.0 0
M  V30 13 C 1.732 -3.5 0.0 0
M  V30 14 C 3.4641 -3.4999 0.0 0
M  V30 15 C 0.866 -3.0 0.0 0
M  V30 16 C 1.732 -4.5 0.0 0
M  V30 17 C 3.4641 -4.5 0.0 0
M  V30 18 C 0.0 -3.5 0.0 0
M  V30 19 C 0.866 -5.0 0.0 0
M  V30 20 O 2.598 -5.0 0.0 0
M  V30 21 O 4.3301 -4.9999 0.0 0
M  V30 22 O -0.866 -3.0 0.0 0
M  V30 23 C 0.0 -4.5 0.0 0
M  V30 24 C -1.732 -3.5 0.0 0
M  V30 25 C -2.598 -3.0 0.0 0
M  V30 26 C -3.4641 -3.5 0.0 0
M  V30 27 N -4.3776 -3.0932 0.0 0
M  V30 28 C -3.5686 -4.4945 0.0 0
M  V30 29 C -5.0467 -3.8364 0.0 0
M  V30 30 O -4.5467 -4.7024 0.0 0
M  V30 31 C -2.8254 -5.1636 0.0 0
M  V30 32 C -6.0412 -3.7318 0.0 0
M  V30 33 C -6.448 -2.8183 0.0 0
M  V30 34 C -6.629 -4.5408 0.0 0
M  V30 35 C -7.4425 -2.7138 0.0 0
M  V30 36 C -7.6236 -4.4363 0.0 0
M  V30 37 C -8.0303 -3.5228 0.0 0
M  V30 END ATOM
M  V30 BEGIN BOND
M  V30 1 2 1 2
M  V30 2 1 2 3
M  V30 3 1 2 4
M  V30 4 1 3 5
M  V30 5 1 4 6
M  V30 6 1 4 7
M  V30 7 1 5 8
M  V30 8 1 6 9
M  V30 9 1 7 10
M  V30 10 1 8 11
M  V30 11 1 8 12
M  V30 12 1 9 13
M  V30 13 1 9 14
M  V30 14 2 13 15
M  V30 15 1 13 16
M  V30 16 1 14 17
M  V30 17 1 15 18
M  V30 18 2 16 19
M  V30 19 2 17 20
M  V30 20 1 17 21
M  V30 21 1 18 22
M  V30 22 2 18 23
M  V30 23 1 22 24
M  V30 24 1 24 25
M  V30 25 1 25 26
M  V30 26 1 26 27
M  V30 27 2 26 28
M  V30 28 2 27 29
M  V30 29 1 28 30
M  V30 30 1 28 31
M  V30 31 1 29 32
M  V30 32 2 32 33
M  V30 33 1 32 34
M  V30 34 1 33 35
M  V30 35 2 34 36
M  V30 36 2 35 37
M  V30 37 1 10 14
M  V30 38 1 19 23
M  V30 39 1 29 30
M  V30 40 1 36 37
M  V30 END BOND
M  V30 END CTAB
M  END
>  <Molecule ChEMBL ID>
CHEMBL258428

>  <Smiles>
Cc1oc(-c2ccccc2)nc1CCOc1cccc(C2CN(C(=O)OCC(C)C)CCC2C(=O)O)c1

>  <IC50_nM>
7620

>  <Assay Description>
Binding affinity at human PPARalpha by fluorescence polarization

$$$$
CHEMBL377508
Actelion Java MolfileCreator 2.0

  0  0  0  0  0  0              0 V3000
M  V30 BEGIN CTAB
M  V30 COUNTS 34 36 0 0 0
M  V30 BEGIN ATOM
M  V30 1 Cl 7.7942 2.25 0.0 0
M  V30 2 C 9.0932 1.5 0.0 0
M  V30 3 C 9.0932 0.0 0.0 0
M  V30 4 C 10.3923 2.25 0.0 0
M  V30 5 O 7.7942 -0.75 0.0 0
M  V30 6 C 10.3923 -0.75 0.0 0
M  V30 7 C 11.6913 1.5 0.0 0
M  V30 8 C 6.4951 0.0 0.0 0
M  V30 9 C 11.6913 0.0 0.0 0
M  V30 10 O 12.9903 2.25 0.0 0
M  V30 11 C 5.1961 -0.75 0.0 0
M  V30 12 C 12.9903 3.75 0.0 0
M  V30 13 C 3.8971 0.0 0.0 0
M  V30 14 C 14.2894 4.5 0.0 0
M  V30 15 C 11.6913 4.5 0.0 0
M  V30 16 C 2.598 -0.75 0.0 0
M  V30 17 C 14.2894 6.0 0.0 0
M  V30 18 C 11.6913 6.0 0.0 0
M  V30 19 O 1.299 0.0 0.0 0
M  V30 20 C 12.9903 6.75 0.0 0
M  V30 21 C 0.0 -0.75 0.0 0
M  V30 22 F 12.9903 8.25 0.0 0
M  V30 23 C -1.299 0.0 0.0 0
M  V30 24 C 0.0 -2.25 0.0 0
M  V30 25 C -2.598 -0.75 0.0 0
M  V30 26 C -1.299 -3.0 0.0 0
M  V30 27 C -2.598 -2.25 0.0 0
M  V30 28 O -3.8971 -3.0 0.0 0
M  V30 29 C -3.8971 -4.5 0.0 0
M  V30 30 C -5.1961 -5.25 0.0 0
M  V30 31 C -3.1471 -5.799 0.0 0
M  V30 32 C -2.3971 -4.4999 0.0 0
M  V30 33 O -6.4951 -4.5 0.0 0
M  V30 34 O -5.1961 -6.75 0.0 0
M  V30 END ATOM
M  V30 BEGIN BOND
M  V30 1 1 1 2
M  V30 2 2 2 3
M  V30 3 1 2 4
M  V30 4 1 3 5
M  V30 5 1 3 6
M  V30 6 2 4 7
M  V30 7 1 5 8
M  V30 8 2 6 9
M  V30 9 1 7 10
M  V30 10 1 8 11
M  V30 11 1 10 12
M  V30 12 1 11 13
M  V30 13 2 12 14
M  V30 14 1 12 15
M  V30 15 1 13 16
M  V30 16 1 14 17
M  V30 17 2 15 18
M  V30 18 1 16 19
M  V30 19 2 17 20
M  V30 20 1 19 21
M  V30 21 1 20 22
M  V30 22 2 21 23
M  V30 23 1 21 24
M  V30 24 1 23 25
M  V30 25 2 24 26
M  V30 26 2 25 27
M  V30 27 1 27 28
M  V30 28 1 28 29
M  V30 29 1 29 30
M  V30 30 1 29 31
M  V30 31 1 29 32
M  V30 32 2 30 33
M  V30 33 1 30 34
M  V30 34 1 7 9
M  V30 35 1 18 20
M  V30 36 1 26 27
M  V30 END BOND
M  V30 END CTAB
M  END
>  <Molecule ChEMBL ID>
CHEMBL377508

>  <Smiles>
CC(C)(Oc1ccc(OCCCCOc2ccc(Oc3ccc(F)cc3)cc2Cl)cc1)C(=O)O

>  <IC50_nM>
7690

>  <Assay Description>
Displacement of radio-labeled full agonist from PPARgamma receptor

$$$$
CHEMBL3596274
Actelion Java MolfileCreator 2.0

  0  0  0  0  0  0              0 V3000
M  V30 BEGIN CTAB
M  V30 COUNTS 30 33 0 0 0
M  V30 BEGIN ATOM
M  V30 1 Cl 2.598 0.9999 0.0 0
M  V30 2 C 1.732 1.4999 0.0 0
M  V30 3 C 0.866 0.9999 0.0 0
M  V30 4 C 1.732 2.4999 0.0 0
M  V30 5 C 0.0 1.5 0.0 0
M  V30 6 C 0.866 0.0 0.0 0
M  V30 7 C 0.866 3.0 0.0 0
M  V30 8 C -0.866 1.0 0.0 0
M  V30 9 C 0.0 2.5 0.0 0
M  V30 10 O 1.732 -0.5 0.0 0
M  V30 11 C 0.0 -0.5 0.0 0
M  V30 12 N -1.732 0.5 0.0 0
M  V30 13 N -0.9135 -0.0932 0.0 0
M  V30 14 N -0.1045 -1.4945 0.0 0
M  V30 15 C -1.5826 -0.8364 0.0 0
M  V30 16 C -1.0826 -1.7024 0.0 0
M  V30 17 C 0.5646 -2.2376 0.0 0
M  V30 18 C -2.5771 -0.7318 0.0 0
M  V30 19 C -1.3916 -2.6534 0.0 0
M  V30 20 C 0.2555 -3.1887 0.0 0
M  V30 21 C -2.9839 0.1816 0.0 0
M  V30 22 C -3.1649 -1.5408 0.0 0
M  V30 23 C -0.7225 -3.3966 0.0 0
M  V30 24 F -2.3961 0.9906 0.0 0
M  V30 25 C -3.9784 0.2861 0.0 0
M  V30 26 C -4.1595 -1.4363 0.0 0
M  V30 27 C -4.5662 -0.5228 0.0 0
M  V30 28 C -5.5607 -0.4182 0.0 0
M  V30 29 O -5.9675 0.4952 0.0 0
M  V30 30 O -6.1485 -1.2273 0.0 0
M  V30 END ATOM
M  V30 BEGIN BOND
M  V30 1 1 1 2
M  V30 2 2 2 3
M  V30 3 1 2 4
M  V30 4 1 3 5
M  V30 5 1 3 6
M  V30 6 2 4 7
M  V30 7 1 5 8
M  V30 8 2 5 9
M  V30 9 2 6 10
M  V30 10 1 6 11
M  V30 11 3 8 12
M  V30 12 2 11 13
M  V30 13 1 11 14
M  V30 14 1 13 15
M  V30 15 1 14 16
M  V30 16 1 14 17
M  V30 17 1 15 18
M  V30 18 1 16 19
M  V30 19 1 17 20
M  V30 20 2 18 21
M  V30 21 1 18 22
M  V30 22 1 19 23
M  V30 23 1 21 24
M  V30 24 1 21 25
M  V30 25 2 22 26
M  V30 26 2 25 27
M  V30 27 1 27 28
M  V30 28 2 28 29
M  V30 29 1 28 30
M  V30 30 1 7 9
M  V30 31 2 15 16
M  V30 32 1 20 23
M  V30 33 1 26 27
M  V30 END BOND
M  V30 END CTAB
M  END
>  <Molecule ChEMBL ID>
CHEMBL3596274

>  <Smiles>
N#Cc1cccc(Cl)c1C(=O)c1nc(-c2ccc(C(=O)O)cc2F)c2n1CCCC2

>  <IC50_nM>
7700

>  <Assay Description>
Displacement of fluormone PPARgamma green from GST-tagged human PPARgamma-LBD after 2 hrs by fluorescence polarization assay

$$$$
CHEMBL147086
Actelion Java MolfileCreator 2.0

  0  0  0  0  0  0              0 V3000
M  V30 BEGIN CTAB
M  V30 COUNTS 34 36 0 0 0
M  V30 BEGIN ATOM
M  V30 1 O 7.4302 -3.9239 0.0 0
M  V30 2 C 6.8201 -2.5536 0.0 0
M  V30 3 N 7.5701 -1.2546 0.0 0
M  V30 4 N 5.3529 -2.2417 0.0 0
M  V30 5 N 6.5664 -0.1398 0.0 0
M  V30 6 C 9.0619 -1.0978 0.0 0
M  V30 7 C 5.1961 -0.75 0.0 0
M  V30 8 C 4.2382 -3.2454 0.0 0
M  V30 9 C 9.672 0.2724 0.0 0
M  V30 10 C 3.8971 0.0 0.0 0
M  V30 11 C 2.8116 -2.7819 0.0 0
M  V30 12 C 11.1638 0.4292 0.0 0
M  V30 13 C 8.7903 1.486 0.0 0
M  V30 14 C 3.8971 1.5 0.0 0
M  V30 15 O 2.4997 -1.3147 0.0 0
M  V30 16 O 1.6969 -3.7856 0.0 0
M  V30 17 C 11.7739 1.7996 0.0 0
M  V30 18 C 9.4004 2.8563 0.0 0
M  V30 19 C 2.598 2.25 0.0 0
M  V30 20 C 10.8922 3.0131 0.0 0
M  V30 21 C 2.598 3.75 0.0 0
M  V30 22 C 11.5023 4.3834 0.0 0
M  V30 23 C 1.299 4.5 0.0 0
M  V30 24 C 3.8971 4.5 0.0 0
M  V30 25 C 1.299 6.0 0.0 0
M  V30 26 C 3.8971 6.0 0.0 0
M  V30 27 C 2.598 6.75 0.0 0
M  V30 28 O 2.598 8.25 0.0 0
M  V30 29 C 3.8971 9.0 0.0 0
M  V30 30 C 3.8971 10.5 0.0 0
M  V30 31 C 5.397 9.0 0.0 0
M  V30 32 C 4.647 7.7009 0.0 0
M  V30 33 O 2.598 11.25 0.0 0
M  V30 34 O 5.1961 11.25 0.0 0
M  V30 END ATOM
M  V30 BEGIN BOND
M  V30 1 2 1 2
M  V30 2 1 2 3
M  V30 3 1 2 4
M  V30 4 1 3 5
M  V30 5 1 3 6
M  V30 6 1 4 7
M  V30 7 1 4 8
M  V30 8 1 6 9
M  V30 9 1 7 10
M  V30 10 1 8 11
M  V30 11 2 9 12
M  V30 12 1 9 13
M  V30 13 1 10 14
M  V30 14 2 11 15
M  V30 15 1 11 16
M  V30 16 1 12 17
M  V30 17 2 13 18
M  V30 18 1 14 19
M  V30 19 2 17 20
M  V30 20 1 19 21
M  V30 21 1 20 22
M  V30 22 2 21 23
M  V30 23 1 21 24
M  V30 24 1 23 25
M  V30 25 2 24 26
M  V30 26 2 25 27
M  V30 27 1 27 28
M  V30 28 1 28 29
M  V30 29 1 29 30
M  V30 30 1 29 31
M  V30 31 1 29 32
M  V30 32 2 30 33
M  V30 33 1 30 34
M  V30 34 2 5 7
M  V30 35 1 18 20
M  V30 36 1 26 27
M  V30 END BOND
M  V30 END CTAB
M  END
>  <Molecule ChEMBL ID>
CHEMBL147086

>  <Smiles>
Cc1ccc(Cn2nc(CCCc3ccc(OC(C)(C)C(=O)O)cc3)n(CC(=O)O)c2=O)cc1

>  <IC50_nM>
7900

>  <Assay Description>
Inhibitory activity of compound against the binding of human Peroxisome proliferator activated receptor gamma was determined

$$$$
CHEMBL496136
Actelion Java MolfileCreator 2.0

  0  0  0  0  0  0              0 V3000
M  V30 BEGIN CTAB
M  V30 COUNTS 35 38 0 0 0
M  V30 BEGIN ATOM
M  V30 1 Cl 7.7942 2.25 0.0 0
M  V30 2 C 6.4951 1.5 0.0 0
M  V30 3 C 6.4951 0.0 0.0 0
M  V30 4 C 5.1961 2.25 0.0 0
M  V30 5 C 5.1961 -0.75 0.0 0
M  V30 6 C 3.8971 1.5 0.0 0
M  V30 7 C 3.8971 0.0 0.0 0
M  V30 8 C 5.1961 -2.25 0.0 0
M  V30 9 N 2.598 -0.75 0.0 0
M  V30 10 O 6.4951 -3.0 0.0 0
M  V30 11 O 3.8971 -3.0 0.0 0
M  V30 12 C 1.299 0.0 0.0 0
M  V30 13 O 1.299 1.5 0.0 0
M  V30 14 C 0.0 -0.75 0.0 0
M  V30 15 C -1.299 0.0 0.0 0
M  V30 16 C 0.0 -2.25 0.0 0
M  V30 17 C -2.598 -0.75 0.0 0
M  V30 18 C -1.299 -3.0 0.0 0
M  V30 19 S -3.8971 0.0 0.0 0
M  V30 20 C -2.598 -2.25 0.0 0
M  V30 21 O -3.1471 1.299 0.0 0
M  V30 22 O -4.6471 1.299 0.0 0
M  V30 23 N -5.1961 -0.75 0.0 0
M  V30 24 C -6.4951 0.0 0.0 0
M  V30 25 C -5.1961 -2.25 0.0 0
M  V30 26 C -7.7942 -0.75 0.0 0
M  V30 27 C -6.4951 -3.0 0.0 0
M  V30 28 C -7.7942 -2.25 0.0 0
M  V30 29 C -9.0932 0.0 0.0 0
M  V30 30 C -9.0932 -3.0 0.0 0
M  V30 31 C -10.3923 -0.75 0.0 0
M  V30 32 C -9.0932 -4.5 0.0 0
M  V30 33 C -10.3923 -2.25 0.0 0
M  V30 34 O -10.3923 -5.25 0.0 0
M  V30 35 O -7.7942 -5.25 0.0 0
M  V30 END ATOM
M  V30 BEGIN BOND
M  V30 1 1 1 2
M  V30 2 2 2 3
M  V30 3 1 2 4
M  V30 4 1 3 5
M  V30 5 2 4 6
M  V30 6 2 5 7
M  V30 7 1 5 8
M  V30 8 1 7 9
M  V30 9 2 8 10
M  V30 10 1 8 11
M  V30 11 1 9 12
M  V30 12 2 12 13
M  V30 13 1 12 14
M  V30 14 2 14 15
M  V30 15 1 14 16
M  V30 16 1 15 17
M  V30 17 2 16 18
M  V30 18 1 17 19
M  V30 19 2 17 20
M  V30 20 2 19 21
M  V30 21 2 19 22
M  V30 22 1 19 23
M  V30 23 1 23 24
M  V30 24 1 23 25
M  V30 25 1 24 26
M  V30 26 1 25 27
M  V30 27 2 26 28
M  V30 28 1 26 29
M  V30 29 1 28 30
M  V30 30 2 29 31
M  V30 31 1 30 32
M  V30 32 2 30 33
M  V30 33 2 32 34
M  V30 34 1 32 35
M  V30 35 1 6 7
M  V30 36 1 18 20
M  V30 37 1 27 28
M  V30 38 1 31 33
M  V30 END BOND
M  V30 END CTAB
M  END
>  <Molecule ChEMBL ID>
CHEMBL496136

>  <Smiles>
O=C(Nc1ccc(Cl)cc1C(=O)O)c1cccc(S(=O)(=O)N2CCc3c(cccc3C(=O)O)C2)c1

>  <IC50_nM>
7943.28

>  <Assay Description>
Agonist activity at PPARgamma

$$$$
CHEMBL498401
Actelion Java MolfileCreator 2.0

  0  0  0  0  0  0              0 V3000
M  V30 BEGIN CTAB
M  V30 COUNTS 37 40 0 0 0
M  V30 BEGIN ATOM
M  V30 1 Cl 1.299 -18.0 0.0 0
M  V30 2 C 1.299 -16.5 0.0 0
M  V30 3 C 0.0 -15.75 0.0 0
M  V30 4 C 2.598 -15.75 0.0 0
M  V30 5 C 0.0 -14.25 0.0 0
M  V30 6 C 2.598 -14.25 0.0 0
M  V30 7 C 1.299 -13.5 0.0 0
M  V30 8 C -1.299 -13.5 0.0 0
M  V30 9 N 1.299 -12.0 0.0 0
M  V30 10 O -2.598 -14.25 0.0 0
M  V30 11 O -1.299 -12.0 0.0 0
M  V30 12 C 2.598 -11.25 0.0 0
M  V30 13 O 3.8971 -12.0 0.0 0
M  V30 14 C 2.598 -9.75 0.0 0
M  V30 15 C 3.8971 -9.0 0.0 0
M  V30 16 C 1.299 -9.0 0.0 0
M  V30 17 C 3.8971 -7.5 0.0 0
M  V30 18 C 1.299 -7.5 0.0 0
M  V30 19 S 5.1961 -6.75 0.0 0
M  V30 20 C 2.598 -6.75 0.0 0
M  V30 21 O 5.9461 -8.049 0.0 0
M  V30 22 O 6.6961 -6.7499 0.0 0
M  V30 23 N 5.1961 -5.25 0.0 0
M  V30 24 C 6.4951 -4.5 0.0 0
M  V30 25 C 3.8971 -4.5 0.0 0
M  V30 26 C 6.4951 -3.0 0.0 0
M  V30 27 C 3.8971 -3.0 0.0 0
M  V30 28 C 5.1961 -2.25 0.0 0
M  V30 29 C 7.7942 -2.25 0.0 0
M  V30 30 C 5.1961 -0.75 0.0 0
M  V30 31 C 7.7942 -0.75 0.0 0
M  V30 32 O 3.8971 0.0 0.0 0
M  V30 33 C 6.4951 0.0 0.0 0
M  V30 34 C 2.598 -0.75 0.0 0
M  V30 35 C 1.299 0.0 0.0 0
M  V30 36 O 1.299 1.5 0.0 0
M  V30 37 O 0.0 -0.75 0.0 0
M  V30 END ATOM
M  V30 BEGIN BOND
M  V30 1 1 1 2
M  V30 2 2 2 3
M  V30 3 1 2 4
M  V30 4 1 3 5
M  V30 5 2 4 6
M  V30 6 2 5 7
M  V30 7 1 5 8
M  V30 8 1 7 9
M  V30 9 2 8 10
M  V30 10 1 8 11
M  V30 11 1 9 12
M  V30 12 2 12 13
M  V30 13 1 12 14
M  V30 14 2 14 15
M  V30 15 1 14 16
M  V30 16 1 15 17
M  V30 17 2 16 18
M  V30 18 1 17 19
M  V30 19 2 17 20
M  V30 20 2 19 21
M  V30 21 2 19 22
M  V30 22 1 19 23
M  V30 23 1 23 24
M  V30 24 1 23 25
M  V30 25 1 24 26
M  V30 26 1 25 27
M  V30 27 2 26 28
M  V30 28 1 26 29
M  V30 29 1 28 30
M  V30 30 2 29 31
M  V30 31 1 30 32
M  V30 32 2 30 33
M  V30 33 1 32 34
M  V30 34 1 34 35
M  V30 35 2 35 36
M  V30 36 1 35 37
M  V30 37 1 6 7
M  V30 38 1 18 20
M  V30 39 1 27 28
M  V30 40 1 31 33
M  V30 END BOND
M  V30 END CTAB
M  END
>  <Molecule ChEMBL ID>
CHEMBL498401

>  <Smiles>
O=C(O)COc1cccc2c1CCN(S(=O)(=O)c1cccc(C(=O)Nc3ccc(Cl)cc3C(=O)O)c1)C2

>  <IC50_nM>
7943.28

>  <Assay Description>
Agonist activity at PPARgamma

$$$$
CHEMBL496116
Actelion Java MolfileCreator 2.0

  0  0  0  0  0  0              0 V3000
M  V30 BEGIN CTAB
M  V30 COUNTS 33 36 0 0 0
M  V30 BEGIN ATOM
M  V30 1 S 5.1961 3.75 0.0 0
M  V30 2 O 4.4461 5.049 0.0 0
M  V30 3 O 3.6961 3.7499 0.0 0
M  V30 4 N 6.4951 4.5 0.0 0
M  V30 5 C 5.1961 2.25 0.0 0
M  V30 6 C 7.8655 3.8898 0.0 0
M  V30 7 C 6.6519 5.9917 0.0 0
M  V30 8 C 3.8971 1.5 0.0 0
M  V30 9 C 6.4951 1.5 0.0 0
M  V30 10 C 8.8692 5.0046 0.0 0
M  V30 11 C 8.329 2.4633 0.0 0
M  V30 12 C 8.1192 6.3036 0.0 0
M  V30 13 C 3.8971 0.0 0.0 0
M  V30 14 C 6.4951 0.0 0.0 0
M  V30 15 C 10.3364 4.6927 0.0 0
M  V30 16 C 9.7962 2.1514 0.0 0
M  V30 17 C 2.598 -0.75 0.0 0
M  V30 18 C 5.1961 -0.75 0.0 0
M  V30 19 C 10.7999 3.2661 0.0 0
M  V30 20 O 10.2597 0.7248 0.0 0
M  V30 21 O 2.598 -2.25 0.0 0
M  V30 22 N 1.299 0.0 0.0 0
M  V30 23 C 11.727 0.4129 0.0 0
M  V30 24 C 0.0 -0.75 0.0 0
M  V30 25 C -1.299 0.0 0.0 0
M  V30 26 C 0.0 -2.25 0.0 0
M  V30 27 C -1.299 1.5 0.0 0
M  V30 28 C -2.598 -0.75 0.0 0
M  V30 29 C -1.299 -3.0 0.0 0
M  V30 30 O 0.0 2.25 0.0 0
M  V30 31 O -2.598 2.25 0.0 0
M  V30 32 C -2.598 -2.25 0.0 0
M  V30 33 C -3.8971 -3.0 0.0 0
M  V30 END ATOM
M  V30 BEGIN BOND
M  V30 1 2 1 2
M  V30 2 2 1 3
M  V30 3 1 1 4
M  V30 4 1 1 5
M  V30 5 1 4 6
M  V30 6 1 4 7
M  V30 7 2 5 8
M  V30 8 1 5 9
M  V30 9 2 6 10
M  V30 10 1 6 11
M  V30 11 2 7 12
M  V30 12 1 8 13
M  V30 13 2 9 14
M  V30 14 1 10 15
M  V30 15 2 11 16
M  V30 16 1 13 17
M  V30 17 2 13 18
M  V30 18 2 15 19
M  V30 19 1 16 20
M  V30 20 2 17 21
M  V30 21 1 17 22
M  V30 22 1 20 23
M  V30 23 1 22 24
M  V30 24 2 24 25
M  V30 25 1 24 26
M  V30 26 1 25 27
M  V30 27 1 25 28
M  V30 28 2 26 29
M  V30 29 2 27 30
M  V30 30 1 27 31
M  V30 31 2 28 32
M  V30 32 1 32 33
M  V30 33 1 10 12
M  V30 34 1 14 18
M  V30 35 1 16 19
M  V30 36 1 29 32
M  V30 END BOND
M  V30 END CTAB
M  END
>  <Molecule ChEMBL ID>
CHEMBL496116

>  <Smiles>
COc1ccc2ccn(S(=O)(=O)c3cccc(C(=O)Nc4ccc(C)cc4C(=O)O)c3)c2c1

>  <IC50_nM>
7943.28

>  <Assay Description>
Agonist activity at PPARgamma

$$$$
CHEMBL523395
Actelion Java MolfileCreator 2.0

  0  0  0  0  0  0              0 V3000
M  V30 BEGIN CTAB
M  V30 COUNTS 31 34 0 0 0
M  V30 BEGIN ATOM
M  V30 1 S 5.1961 3.75 0.0 0
M  V30 2 O 4.4461 5.049 0.0 0
M  V30 3 O 3.6961 3.7499 0.0 0
M  V30 4 N 6.4951 4.5 0.0 0
M  V30 5 C 5.1961 2.25 0.0 0
M  V30 6 C 7.7942 3.75 0.0 0
M  V30 7 C 6.4951 6.0 0.0 0
M  V30 8 C 3.8971 1.5 0.0 0
M  V30 9 C 6.4951 1.5 0.0 0
M  V30 10 C 9.0932 4.5 0.0 0
M  V30 11 C 7.7942 6.75 0.0 0
M  V30 12 C 3.8971 0.0 0.0 0
M  V30 13 C 6.4951 0.0 0.0 0
M  V30 14 C 9.0932 6.0 0.0 0
M  V30 15 C 10.3923 3.75 0.0 0
M  V30 16 C 2.598 -0.75 0.0 0
M  V30 17 C 5.1961 -0.75 0.0 0
M  V30 18 C 10.3923 6.75 0.0 0
M  V30 19 C 11.6913 4.5 0.0 0
M  V30 20 O 2.598 -2.25 0.0 0
M  V30 21 N 1.299 0.0 0.0 0
M  V30 22 C 11.6913 6.0 0.0 0
M  V30 23 C 0.0 -0.75 0.0 0
M  V30 24 C -1.299 0.0 0.0 0
M  V30 25 C 0.0 -2.25 0.0 0
M  V30 26 C -1.299 1.5 0.0 0
M  V30 27 C -2.598 -0.75 0.0 0
M  V30 28 C -1.299 -3.0 0.0 0
M  V30 29 O 0.0 2.25 0.0 0
M  V30 30 O -2.598 2.25 0.0 0
M  V30 31 C -2.598 -2.25 0.0 0
M  V30 END ATOM
M  V30 BEGIN BOND
M  V30 1 2 1 2
M  V30 2 2 1 3
M  V30 3 1 1 4
M  V30 4 1 1 5
M  V30 5 1 4 6
M  V30 6 1 4 7
M  V30 7 2 5 8
M  V30 8 1 5 9
M  V30 9 1 6 10
M  V30 10 1 7 11
M  V30 11 1 8 12
M  V30 12 2 9 13
M  V30 13 2 10 14
M  V30 14 1 10 15
M  V30 15 1 12 16
M  V30 16 2 12 17
M  V30 17 1 14 18
M  V30 18 2 15 19
M  V30 19 2 16 20
M  V30 20 1 16 21
M  V30 21 2 18 22
M  V30 22 1 21 23
M  V30 23 2 23 24
M  V30 24 1 23 25
M  V30 25 1 24 26
M  V30 26 1 24 27
M  V30 27 2 25 28
M  V30 28 2 26 29
M  V30 29 1 26 30
M  V30 30 2 27 31
M  V30 31 1 11 14
M  V30 32 1 13 17
M  V30 33 1 19 22
M  V30 34 1 28 31
M  V30 END BOND
M  V30 END CTAB
M  END
>  <Molecule ChEMBL ID>
CHEMBL523395

>  <Smiles>
O=C(Nc1ccccc1C(=O)O)c1cccc(S(=O)(=O)N2CCc3ccccc3C2)c1

>  <IC50_nM>
7943.28

>  <Assay Description>
Displacement of radiolabeled ligand from human PPARgamma by competition-binding assay

$$$$
CHEMBL1760419
Actelion Java MolfileCreator 2.0

  0  0  0  0  0  0              0 V3000
M  V30 BEGIN CTAB
M  V30 COUNTS 37 39 0 0 0
M  V30 BEGIN ATOM
M  V30 1 Cl 11.6913 -7.5 0.0 0
M  V30 2 C 10.3923 -6.75 0.0 0
M  V30 3 C 9.0932 -7.5 0.0 0
M  V30 4 C 10.3923 -5.25 0.0 0
M  V30 5 C 7.7942 -6.75 0.0 0
M  V30 6 C 9.0932 -4.5 0.0 0
M  V30 7 C 7.7942 -5.25 0.0 0
M  V30 8 C 6.4951 -4.5 0.0 0
M  V30 9 C 5.1961 -5.25 0.0 0
M  V30 10 C 6.4951 -3.0 0.0 0
M  V30 11 F 5.1961 -6.75 0.0 0
M  V30 12 C 3.8971 -4.5 0.0 0
M  V30 13 C 5.1961 -2.25 0.0 0
M  V30 14 C 3.8971 -3.0 0.0 0
M  V30 15 N 5.1961 -0.75 0.0 0
M  V30 16 C 2.598 -2.25 0.0 0
M  V30 17 S 6.4951 0.0 0.0 0
M  V30 18 C 3.8971 0.0 0.0 0
M  V30 19 O 7.2451 1.299 0.0 0
M  V30 20 O 5.7451 1.299 0.0 0
M  V30 21 C 7.7942 -0.75 0.0 0
M  V30 22 C 2.598 -0.75 0.0 0
M  V30 23 C 9.0932 0.0 0.0 0
M  V30 24 C 7.7942 -2.25 0.0 0
M  V30 25 C 1.299 0.0 0.0 0
M  V30 26 C 10.3923 -0.75 0.0 0
M  V30 27 C 9.0932 1.5 0.0 0
M  V30 28 C 9.0932 -3.0 0.0 0
M  V30 29 C 0.0 -0.75 0.0 0
M  V30 30 C 10.3923 -2.25 0.0 0
M  V30 31 C 11.6913 0.0 0.0 0
M  V30 32 O 11.6913 -3.0 0.0 0
M  V30 33 C 12.9903 -2.25 0.0 0 CFG=2
M  V30 34 C 14.2894 -3.0 0.0 0
M  V30 35 C 12.9903 -0.75 0.0 0
M  V30 36 O 14.2894 -4.5 0.0 0
M  V30 37 O 15.5884 -2.25 0.0 0
M  V30 END ATOM
M  V30 BEGIN BOND
M  V30 1 1 1 2
M  V30 2 2 2 3
M  V30 3 1 2 4
M  V30 4 1 3 5
M  V30 5 2 4 6
M  V30 6 2 5 7
M  V30 7 1 7 8
M  V30 8 2 8 9
M  V30 9 1 8 10
M  V30 10 1 9 11
M  V30 11 1 9 12
M  V30 12 2 10 13
M  V30 13 2 12 14
M  V30 14 1 13 15
M  V30 15 1 14 16
M  V30 16 1 15 17
M  V30 17 1 15 18
M  V30 18 2 17 19
M  V30 19 2 17 20
M  V30 20 1 17 21
M  V30 21 1 18 22
M  V30 22 2 21 23
M  V30 23 1 21 24
M  V30 24 1 22 25
M  V30 25 1 23 26
M  V30 26 1 23 27
M  V30 27 2 24 28
M  V30 28 1 25 29
M  V30 29 2 26 30
M  V30 30 1 26 31
M  V30 31 1 30 32
M  V30 32 1 32 33
M  V30 33 1 33 34
M  V30 34 1 33 35 CFG=1
M  V30 35 2 34 36
M  V30 36 1 34 37
M  V30 37 1 6 7
M  V30 38 1 13 14
M  V30 39 1 28 30
M  V30 END BOND
M  V30 BEGIN COLLECTION
M  V30 MDLV30/STERAC1 ATOMS=(1 33)
M  V30 END COLLECTION
M  V30 END CTAB
M  END
>  <Molecule ChEMBL ID>
CHEMBL1760419

>  <Smiles>
CCCCN(c1cc(-c2ccc(Cl)cc2)c(F)cc1C)S(=O)(=O)c1ccc(OC(C)C(=O)O)c(C)c1C

>  <IC50_nM>
7943.28

>  <Assay Description>
Displacement of [3H]GW 2433 from human PPARgamma by scintillation proximity assay

$$$$
CHEMBL1760412
Actelion Java MolfileCreator 2.0

  0  0  0  0  0  0              0 V3000
M  V30 BEGIN CTAB
M  V30 COUNTS 37 39 0 0 0
M  V30 BEGIN ATOM
M  V30 1 Cl -1.299 -7.5 0.0 0
M  V30 2 C 0.0 -6.75 0.0 0
M  V30 3 C 0.0 -5.25 0.0 0
M  V30 4 C 1.299 -7.5 0.0 0
M  V30 5 C 1.299 -4.5 0.0 0
M  V30 6 C 2.598 -6.75 0.0 0
M  V30 7 C 2.598 -5.25 0.0 0
M  V30 8 C 3.8971 -4.5 0.0 0
M  V30 9 C 3.8971 -3.0 0.0 0
M  V30 10 C 5.1961 -5.25 0.0 0
M  V30 11 O 2.598 -2.25 0.0 0
M  V30 12 C 5.1961 -2.25 0.0 0
M  V30 13 C 6.4951 -4.5 0.0 0
M  V30 14 C 1.299 -3.0 0.0 0
M  V30 15 N 5.1961 -0.75 0.0 0
M  V30 16 C 6.4951 -3.0 0.0 0
M  V30 17 S 6.4951 0.0 0.0 0
M  V30 18 C 3.8971 0.0 0.0 0
M  V30 19 O 7.2451 1.299 0.0 0
M  V30 20 O 5.7451 1.299 0.0 0
M  V30 21 C 7.7942 -0.75 0.0 0
M  V30 22 C 2.598 -0.75 0.0 0
M  V30 23 C 9.0932 0.0 0.0 0
M  V30 24 C 7.7942 -2.25 0.0 0
M  V30 25 C 1.299 0.0 0.0 0
M  V30 26 C 10.3923 -0.75 0.0 0
M  V30 27 C 9.0932 1.5 0.0 0
M  V30 28 C 9.0932 -3.0 0.0 0
M  V30 29 C 0.0 -0.75 0.0 0
M  V30 30 C 10.3923 -2.25 0.0 0
M  V30 31 C 11.6913 0.0 0.0 0
M  V30 32 O 11.6913 -3.0 0.0 0
M  V30 33 C 11.6913 -4.5 0.0 0 CFG=2
M  V30 34 C 12.9903 -5.25 0.0 0
M  V30 35 C 10.3923 -5.25 0.0 0
M  V30 36 O 14.2894 -4.5 0.0 0
M  V30 37 O 12.9903 -6.75 0.0 0
M  V30 END ATOM
M  V30 BEGIN BOND
M  V30 1 1 1 2
M  V30 2 2 2 3
M  V30 3 1 2 4
M  V30 4 1 3 5
M  V30 5 2 4 6
M  V30 6 2 5 7
M  V30 7 1 7 8
M  V30 8 2 8 9
M  V30 9 1 8 10
M  V30 10 1 9 11
M  V30 11 1 9 12
M  V30 12 2 10 13
M  V30 13 1 11 14
M  V30 14 1 12 15
M  V30 15 2 12 16
M  V30 16 1 15 17
M  V30 17 1 15 18
M  V30 18 2 17 19
M  V30 19 2 17 20
M  V30 20 1 17 21
M  V30 21 1 18 22
M  V30 22 2 21 23
M  V30 23 1 21 24
M  V30 24 1 22 25
M  V30 25 1 23 26
M  V30 26 1 23 27
M  V30 27 2 24 28
M  V30 28 1 25 29
M  V30 29 2 26 30
M  V30 30 1 26 31
M  V30 31 1 30 32
M  V30 32 1 32 33
M  V30 33 1 33 34
M  V30 34 1 33 35 CFG=3
M  V30 35 2 34 36
M  V30 36 1 34 37
M  V30 37 1 6 7
M  V30 38 1 13 16
M  V30 39 1 28 30
M  V30 END BOND
M  V30 BEGIN COLLECTION
M  V30 MDLV30/STERAC1 ATOMS=(1 33)
M  V30 END COLLECTION
M  V30 END CTAB
M  END
>  <Molecule ChEMBL ID>
CHEMBL1760412

>  <Smiles>
CCCCN(c1cccc(-c2ccc(Cl)cc2)c1OC)S(=O)(=O)c1ccc(OC(C)C(=O)O)c(C)c1C

>  <IC50_nM>
7943.28

>  <Assay Description>
Displacement of [3H]GW 2433 from human PPARgamma by scintillation proximity assay

$$$$
CHEMBL1760405
Actelion Java MolfileCreator 2.0

  0  0  0  0  0  0              0 V3000
M  V30 BEGIN CTAB
M  V30 COUNTS 35 37 0 0 0
M  V30 BEGIN ATOM
M  V30 1 Cl -2.598 6.75 0.0 0
M  V30 2 C -1.299 6.0 0.0 0
M  V30 3 C -1.299 4.5 0.0 0
M  V30 4 C 0.0 6.75 0.0 0
M  V30 5 C 0.0 3.75 0.0 0
M  V30 6 C 1.299 6.0 0.0 0
M  V30 7 C 1.299 4.5 0.0 0
M  V30 8 C 2.598 3.75 0.0 0
M  V30 9 C 2.598 2.25 0.0 0
M  V30 10 C 3.8971 4.5 0.0 0
M  V30 11 C 3.8971 1.5 0.0 0
M  V30 12 C 1.299 1.5 0.0 0
M  V30 13 C 5.1961 3.75 0.0 0
M  V30 14 N 3.8971 0.0 0.0 0
M  V30 15 C 5.1961 2.25 0.0 0
M  V30 16 S 5.1961 -0.75 0.0 0
M  V30 17 C 2.598 -0.75 0.0 0
M  V30 18 O 4.4461 -2.049 0.0 0
M  V30 19 O 5.9461 -2.049 0.0 0
M  V30 20 C 6.4951 0.0 0.0 0
M  V30 21 C 1.299 0.0 0.0 0
M  V30 22 C 7.7942 -0.75 0.0 0
M  V30 23 C 6.4951 1.5 0.0 0
M  V30 24 C 0.0 -0.75 0.0 0
M  V30 25 C 9.0932 0.0 0.0 0
M  V30 26 C 7.7942 -2.25 0.0 0
M  V30 27 C 7.7942 2.25 0.0 0
M  V30 28 C 9.0932 1.5 0.0 0
M  V30 29 C 10.3923 -0.75 0.0 0
M  V30 30 O 10.3923 2.25 0.0 0
M  V30 31 C 10.3923 3.75 0.0 0 CFG=2
M  V30 32 C 11.6913 4.5 0.0 0
M  V30 33 C 9.0932 4.5 0.0 0
M  V30 34 O 12.9903 3.75 0.0 0
M  V30 35 O 11.6913 6.0 0.0 0
M  V30 END ATOM
M  V30 BEGIN BOND
M  V30 1 1 1 2
M  V30 2 2 2 3
M  V30 3 1 2 4
M  V30 4 1 3 5
M  V30 5 2 4 6
M  V30 6 2 5 7
M  V30 7 1 7 8
M  V30 8 2 8 9
M  V30 9 1 8 10
M  V30 10 1 9 11
M  V30 11 1 9 12
M  V30 12 2 10 13
M  V30 13 1 11 14
M  V30 14 2 11 15
M  V30 15 1 14 16
M  V30 16 1 14 17
M  V30 17 2 16 18
M  V30 18 2 16 19
M  V30 19 1 16 20
M  V30 20 1 17 21
M  V30 21 2 20 22
M  V30 22 1 20 23
M  V30 23 1 21 24
M  V30 24 1 22 25
M  V30 25 1 22 26
M  V30 26 2 23 27
M  V30 27 2 25 28
M  V30 28 1 25 29
M  V30 29 1 28 30
M  V30 30 1 30 31
M  V30 31 1 31 32
M  V30 32 1 31 33 CFG=1
M  V30 33 2 32 34
M  V30 34 1 32 35
M  V30 35 1 6 7
M  V30 36 1 13 15
M  V30 37 1 27 28
M  V30 END BOND
M  V30 BEGIN COLLECTION
M  V30 MDLV30/STERAC1 ATOMS=(1 31)
M  V30 END COLLECTION
M  V30 END CTAB
M  END
>  <Molecule ChEMBL ID>
CHEMBL1760405

>  <Smiles>
CCCN(c1cccc(-c2ccc(Cl)cc2)c1C)S(=O)(=O)c1ccc(OC(C)C(=O)O)c(C)c1C

>  <IC50_nM>
7943.28

>  <Assay Description>
Displacement of [3H]GW 2433 from human PPARgamma by scintillation proximity assay

$$$$
CHEMBL1760274
Actelion Java MolfileCreator 2.0

  0  0  0  0  0  0              0 V3000
M  V30 BEGIN CTAB
M  V30 COUNTS 40 43 0 0 0
M  V30 BEGIN ATOM
M  V30 1 Cl -1.299 -7.5 0.0 0
M  V30 2 C 0.0 -6.75 0.0 0
M  V30 3 C 0.0 -5.25 0.0 0
M  V30 4 C 1.299 -7.5 0.0 0
M  V30 5 C 1.299 -4.5 0.0 0
M  V30 6 C 2.598 -6.75 0.0 0
M  V30 7 C 2.598 -5.25 0.0 0
M  V30 8 C 3.8971 -4.5 0.0 0
M  V30 9 C 3.8971 -3.0 0.0 0
M  V30 10 C 5.1961 -5.25 0.0 0
M  V30 11 C 5.1961 -2.25 0.0 0
M  V30 12 C 2.598 -2.25 0.0 0
M  V30 13 C 6.4951 -4.5 0.0 0
M  V30 14 N 5.1961 -0.75 0.0 0
M  V30 15 C 6.4951 -3.0 0.0 0
M  V30 16 S 6.4951 0.0 0.0 0
M  V30 17 C 3.8971 0.0 0.0 0
M  V30 18 O 7.2451 1.299 0.0 0
M  V30 19 O 5.7451 1.299 0.0 0
M  V30 20 C 7.7942 -0.75 0.0 0
M  V30 21 C 2.598 -0.75 0.0 0
M  V30 22 C 7.7942 -2.25 0.0 0
M  V30 23 C 9.0932 0.0 0.0 0
M  V30 24 C 1.299 0.0 0.0 0
M  V30 25 C 9.0932 -3.0 0.0 0
M  V30 26 C 10.3923 -0.75 0.0 0
M  V30 27 C 0.0 -0.75 0.0 0
M  V30 28 C 10.3923 -2.25 0.0 0
M  V30 29 C 9.0932 -4.5 0.0 0
M  V30 30 O 11.6913 -3.0 0.0 0
M  V30 31 C 7.7942 -5.25 0.0 0
M  V30 32 C 10.3923 -5.25 0.0 0
M  V30 33 C 12.9903 -2.25 0.0 0 CFG=2
M  V30 34 C 7.7942 -6.75 0.0 0
M  V30 35 C 10.3923 -6.75 0.0 0
M  V30 36 C 14.2894 -3.0 0.0 0
M  V30 37 C 12.9903 -0.75 0.0 0
M  V30 38 C 9.0932 -7.5 0.0 0
M  V30 39 O 14.2894 -4.5 0.0 0
M  V30 40 O 15.5884 -2.25 0.0 0
M  V30 END ATOM
M  V30 BEGIN BOND
M  V30 1 1 1 2
M  V30 2 2 2 3
M  V30 3 1 2 4
M  V30 4 1 3 5
M  V30 5 2 4 6
M  V30 6 2 5 7
M  V30 7 1 7 8
M  V30 8 2 8 9
M  V30 9 1 8 10
M  V30 10 1 9 11
M  V30 11 1 9 12
M  V30 12 2 10 13
M  V30 13 1 11 14
M  V30 14 2 11 15
M  V30 15 1 14 16
M  V30 16 1 14 17
M  V30 17 2 16 18
M  V30 18 2 16 19
M  V30 19 1 16 20
M  V30 20 1 17 21
M  V30 21 2 20 22
M  V30 22 1 20 23
M  V30 23 1 21 24
M  V30 24 1 22 25
M  V30 25 2 23 26
M  V30 26 1 24 27
M  V30 27 2 25 28
M  V30 28 1 25 29
M  V30 29 1 28 30
M  V30 30 1 29 31
M  V30 31 1 29 32
M  V30 32 1 30 33
M  V30 33 1 31 34
M  V30 34 1 32 35
M  V30 35 1 33 36
M  V30 36 1 33 37 CFG=1
M  V30 37 1 34 38
M  V30 38 2 36 39
M  V30 39 1 36 40
M  V30 40 1 6 7
M  V30 41 1 13 15
M  V30 42 1 26 28
M  V30 43 1 35 38
M  V30 END BOND
M  V30 BEGIN COLLECTION
M  V30 MDLV30/STERAC1 ATOMS=(1 33)
M  V30 END COLLECTION
M  V30 END CTAB
M  END
>  <Molecule ChEMBL ID>
CHEMBL1760274

>  <Smiles>
CCCCN(c1cccc(-c2ccc(Cl)cc2)c1C)S(=O)(=O)c1ccc(OC(C)C(=O)O)c(C2CCCCC2)c1

>  <IC50_nM>
7943.28

>  <Assay Description>
Displacement of [3H]GW 2433 from human PPARgamma by scintillation proximity assay

$$$$
CHEMBL498401
Actelion Java MolfileCreator 2.0

  0  0  0  0  0  0              0 V3000
M  V30 BEGIN CTAB
M  V30 COUNTS 37 40 0 0 0
M  V30 BEGIN ATOM
M  V30 1 Cl 1.299 -18.0 0.0 0
M  V30 2 C 1.299 -16.5 0.0 0
M  V30 3 C 0.0 -15.75 0.0 0
M  V30 4 C 2.598 -15.75 0.0 0
M  V30 5 C 0.0 -14.25 0.0 0
M  V30 6 C 2.598 -14.25 0.0 0
M  V30 7 C 1.299 -13.5 0.0 0
M  V30 8 C -1.299 -13.5 0.0 0
M  V30 9 N 1.299 -12.0 0.0 0
M  V30 10 O -2.598 -14.25 0.0 0
M  V30 11 O -1.299 -12.0 0.0 0
M  V30 12 C 2.598 -11.25 0.0 0
M  V30 13 O 3.8971 -12.0 0.0 0
M  V30 14 C 2.598 -9.75 0.0 0
M  V30 15 C 3.8971 -9.0 0.0 0
M  V30 16 C 1.299 -9.0 0.0 0
M  V30 17 C 3.8971 -7.5 0.0 0
M  V30 18 C 1.299 -7.5 0.0 0
M  V30 19 S 5.1961 -6.75 0.0 0
M  V30 20 C 2.598 -6.75 0.0 0
M  V30 21 O 5.9461 -8.049 0.0 0
M  V30 22 O 6.6961 -6.7499 0.0 0
M  V30 23 N 5.1961 -5.25 0.0 0
M  V30 24 C 6.4951 -4.5 0.0 0
M  V30 25 C 3.8971 -4.5 0.0 0
M  V30 26 C 6.4951 -3.0 0.0 0
M  V30 27 C 3.8971 -3.0 0.0 0
M  V30 28 C 5.1961 -2.25 0.0 0
M  V30 29 C 7.7942 -2.25 0.0 0
M  V30 30 C 5.1961 -0.75 0.0 0
M  V30 31 C 7.7942 -0.75 0.0 0
M  V30 32 O 3.8971 0.0 0.0 0
M  V30 33 C 6.4951 0.0 0.0 0
M  V30 34 C 2.598 -0.75 0.0 0
M  V30 35 C 1.299 0.0 0.0 0
M  V30 36 O 1.299 1.5 0.0 0
M  V30 37 O 0.0 -0.75 0.0 0
M  V30 END ATOM
M  V30 BEGIN BOND
M  V30 1 1 1 2
M  V30 2 2 2 3
M  V30 3 1 2 4
M  V30 4 1 3 5
M  V30 5 2 4 6
M  V30 6 2 5 7
M  V30 7 1 5 8
M  V30 8 1 7 9
M  V30 9 2 8 10
M  V30 10 1 8 11
M  V30 11 1 9 12
M  V30 12 2 12 13
M  V30 13 1 12 14
M  V30 14 2 14 15
M  V30 15 1 14 16
M  V30 16 1 15 17
M  V30 17 2 16 18
M  V30 18 1 17 19
M  V30 19 2 17 20
M  V30 20 2 19 21
M  V30 21 2 19 22
M  V30 22 1 19 23
M  V30 23 1 23 24
M  V30 24 1 23 25
M  V30 25 1 24 26
M  V30 26 1 25 27
M  V30 27 2 26 28
M  V30 28 1 26 29
M  V30 29 1 28 30
M  V30 30 2 29 31
M  V30 31 1 30 32
M  V30 32 2 30 33
M  V30 33 1 32 34
M  V30 34 1 34 35
M  V30 35 2 35 36
M  V30 36 1 35 37
M  V30 37 1 6 7
M  V30 38 1 18 20
M  V30 39 1 27 28
M  V30 40 1 31 33
M  V30 END BOND
M  V30 END CTAB
M  END
>  <Molecule ChEMBL ID>
CHEMBL498401

>  <Smiles>
O=C(O)COc1cccc2c1CCN(S(=O)(=O)c1cccc(C(=O)Nc3ccc(Cl)cc3C(=O)O)c1)C2

>  <IC50_nM>
7943.28

>  <Assay Description>
Displacement of radiolabeled ligand from human PPARgamma by competition-binding assay

$$$$
CHEMBL496116
Actelion Java MolfileCreator 2.0

  0  0  0  0  0  0              0 V3000
M  V30 BEGIN CTAB
M  V30 COUNTS 33 36 0 0 0
M  V30 BEGIN ATOM
M  V30 1 S 5.1961 3.75 0.0 0
M  V30 2 O 4.4461 5.049 0.0 0
M  V30 3 O 3.6961 3.7499 0.0 0
M  V30 4 N 6.4951 4.5 0.0 0
M  V30 5 C 5.1961 2.25 0.0 0
M  V30 6 C 7.8655 3.8898 0.0 0
M  V30 7 C 6.6519 5.9917 0.0 0
M  V30 8 C 3.8971 1.5 0.0 0
M  V30 9 C 6.4951 1.5 0.0 0
M  V30 10 C 8.8692 5.0046 0.0 0
M  V30 11 C 8.329 2.4633 0.0 0
M  V30 12 C 8.1192 6.3036 0.0 0
M  V30 13 C 3.8971 0.0 0.0 0
M  V30 14 C 6.4951 0.0 0.0 0
M  V30 15 C 10.3364 4.6927 0.0 0
M  V30 16 C 9.7962 2.1514 0.0 0
M  V30 17 C 2.598 -0.75 0.0 0
M  V30 18 C 5.1961 -0.75 0.0 0
M  V30 19 C 10.7999 3.2661 0.0 0
M  V30 20 O 10.2597 0.7248 0.0 0
M  V30 21 O 2.598 -2.25 0.0 0
M  V30 22 N 1.299 0.0 0.0 0
M  V30 23 C 11.727 0.4129 0.0 0
M  V30 24 C 0.0 -0.75 0.0 0
M  V30 25 C -1.299 0.0 0.0 0
M  V30 26 C 0.0 -2.25 0.0 0
M  V30 27 C -1.299 1.5 0.0 0
M  V30 28 C -2.598 -0.75 0.0 0
M  V30 29 C -1.299 -3.0 0.0 0
M  V30 30 O 0.0 2.25 0.0 0
M  V30 31 O -2.598 2.25 0.0 0
M  V30 32 C -2.598 -2.25 0.0 0
M  V30 33 C -3.8971 -3.0 0.0 0
M  V30 END ATOM
M  V30 BEGIN BOND
M  V30 1 2 1 2
M  V30 2 2 1 3
M  V30 3 1 1 4
M  V30 4 1 1 5
M  V30 5 1 4 6
M  V30 6 1 4 7
M  V30 7 2 5 8
M  V30 8 1 5 9
M  V30 9 2 6 10
M  V30 10 1 6 11
M  V30 11 2 7 12
M  V30 12 1 8 13
M  V30 13 2 9 14
M  V30 14 1 10 15
M  V30 15 2 11 16
M  V30 16 1 13 17
M  V30 17 2 13 18
M  V30 18 2 15 19
M  V30 19 1 16 20
M  V30 20 2 17 21
M  V30 21 1 17 22
M  V30 22 1 20 23
M  V30 23 1 22 24
M  V30 24 2 24 25
M  V30 25 1 24 26
M  V30 26 1 25 27
M  V30 27 1 25 28
M  V30 28 2 26 29
M  V30 29 2 27 30
M  V30 30 1 27 31
M  V30 31 2 28 32
M  V30 32 1 32 33
M  V30 33 1 10 12
M  V30 34 1 14 18
M  V30 35 1 16 19
M  V30 36 1 29 32
M  V30 END BOND
M  V30 END CTAB
M  END
>  <Molecule ChEMBL ID>
CHEMBL496116

>  <Smiles>
COc1ccc2ccn(S(=O)(=O)c3cccc(C(=O)Nc4ccc(C)cc4C(=O)O)c3)c2c1

>  <IC50_nM>
7943.28

>  <Assay Description>
Displacement of radiolabeled ligand from human PPARgamma by competition-binding assay

$$$$
CHEMBL496136
Actelion Java MolfileCreator 2.0

  0  0  0  0  0  0              0 V3000
M  V30 BEGIN CTAB
M  V30 COUNTS 35 38 0 0 0
M  V30 BEGIN ATOM
M  V30 1 Cl 7.7942 2.25 0.0 0
M  V30 2 C 6.4951 1.5 0.0 0
M  V30 3 C 6.4951 0.0 0.0 0
M  V30 4 C 5.1961 2.25 0.0 0
M  V30 5 C 5.1961 -0.75 0.0 0
M  V30 6 C 3.8971 1.5 0.0 0
M  V30 7 C 3.8971 0.0 0.0 0
M  V30 8 C 5.1961 -2.25 0.0 0
M  V30 9 N 2.598 -0.75 0.0 0
M  V30 10 O 6.4951 -3.0 0.0 0
M  V30 11 O 3.8971 -3.0 0.0 0
M  V30 12 C 1.299 0.0 0.0 0
M  V30 13 O 1.299 1.5 0.0 0
M  V30 14 C 0.0 -0.75 0.0 0
M  V30 15 C -1.299 0.0 0.0 0
M  V30 16 C 0.0 -2.25 0.0 0
M  V30 17 C -2.598 -0.75 0.0 0
M  V30 18 C -1.299 -3.0 0.0 0
M  V30 19 S -3.8971 0.0 0.0 0
M  V30 20 C -2.598 -2.25 0.0 0
M  V30 21 O -3.1471 1.299 0.0 0
M  V30 22 O -4.6471 1.299 0.0 0
M  V30 23 N -5.1961 -0.75 0.0 0
M  V30 24 C -6.4951 0.0 0.0 0
M  V30 25 C -5.1961 -2.25 0.0 0
M  V30 26 C -7.7942 -0.75 0.0 0
M  V30 27 C -6.4951 -3.0 0.0 0
M  V30 28 C -7.7942 -2.25 0.0 0
M  V30 29 C -9.0932 0.0 0.0 0
M  V30 30 C -9.0932 -3.0 0.0 0
M  V30 31 C -10.3923 -0.75 0.0 0
M  V30 32 C -9.0932 -4.5 0.0 0
M  V30 33 C -10.3923 -2.25 0.0 0
M  V30 34 O -10.3923 -5.25 0.0 0
M  V30 35 O -7.7942 -5.25 0.0 0
M  V30 END ATOM
M  V30 BEGIN BOND
M  V30 1 1 1 2
M  V30 2 2 2 3
M  V30 3 1 2 4
M  V30 4 1 3 5
M  V30 5 2 4 6
M  V30 6 2 5 7
M  V30 7 1 5 8
M  V30 8 1 7 9
M  V30 9 2 8 10
M  V30 10 1 8 11
M  V30 11 1 9 12
M  V30 12 2 12 13
M  V30 13 1 12 14
M  V30 14 2 14 15
M  V30 15 1 14 16
M  V30 16 1 15 17
M  V30 17 2 16 18
M  V30 18 1 17 19
M  V30 19 2 17 20
M  V30 20 2 19 21
M  V30 21 2 19 22
M  V30 22 1 19 23
M  V30 23 1 23 24
M  V30 24 1 23 25
M  V30 25 1 24 26
M  V30 26 1 25 27
M  V30 27 2 26 28
M  V30 28 1 26 29
M  V30 29 1 28 30
M  V30 30 2 29 31
M  V30 31 1 30 32
M  V30 32 2 30 33
M  V30 33 2 32 34
M  V30 34 1 32 35
M  V30 35 1 6 7
M  V30 36 1 18 20
M  V30 37 1 27 28
M  V30 38 1 31 33
M  V30 END BOND
M  V30 END CTAB
M  END
>  <Molecule ChEMBL ID>
CHEMBL496136

>  <Smiles>
O=C(Nc1ccc(Cl)cc1C(=O)O)c1cccc(S(=O)(=O)N2CCc3c(cccc3C(=O)O)C2)c1

>  <IC50_nM>
7943.28

>  <Assay Description>
Displacement of radiolabeled ligand from human PPARgamma by competition-binding assay

$$$$
CHEMBL1760267
Actelion Java MolfileCreator 2.0

  0  0  0  0  0  0              0 V3000
M  V30 BEGIN CTAB
M  V30 COUNTS 36 38 0 0 0
M  V30 BEGIN ATOM
M  V30 1 Cl -1.299 -7.5 0.0 0
M  V30 2 C 0.0 -6.75 0.0 0
M  V30 3 C 0.0 -5.25 0.0 0
M  V30 4 C 1.299 -7.5 0.0 0
M  V30 5 C 1.299 -4.5 0.0 0
M  V30 6 C 2.598 -6.75 0.0 0
M  V30 7 C 2.598 -5.25 0.0 0
M  V30 8 C 3.8971 -4.5 0.0 0
M  V30 9 C 3.8971 -3.0 0.0 0
M  V30 10 C 5.1961 -5.25 0.0 0
M  V30 11 C 5.1961 -2.25 0.0 0
M  V30 12 C 2.598 -2.25 0.0 0
M  V30 13 C 6.4951 -4.5 0.0 0
M  V30 14 N 5.1961 -0.75 0.0 0
M  V30 15 C 6.4951 -3.0 0.0 0
M  V30 16 S 6.4951 0.0 0.0 0
M  V30 17 C 3.8971 0.0 0.0 0
M  V30 18 O 7.2451 1.299 0.0 0
M  V30 19 O 5.7451 1.299 0.0 0
M  V30 20 C 7.7942 -0.75 0.0 0
M  V30 21 C 2.598 -0.75 0.0 0
M  V30 22 C 9.0932 0.0 0.0 0
M  V30 23 C 7.7942 -2.25 0.0 0
M  V30 24 C 1.299 0.0 0.0 0
M  V30 25 C 10.3923 -0.75 0.0 0
M  V30 26 C 9.0932 1.5 0.0 0
M  V30 27 C 9.0932 -3.0 0.0 0
M  V30 28 C 0.0 -0.75 0.0 0
M  V30 29 C 10.3923 -2.25 0.0 0
M  V30 30 C 11.6913 0.0 0.0 0
M  V30 31 O 11.6913 -3.0 0.0 0
M  V30 32 C 11.6913 -4.5 0.0 0 CFG=2
M  V30 33 C 12.9903 -5.25 0.0 0
M  V30 34 C 10.3923 -5.25 0.0 0
M  V30 35 O 14.2894 -4.5 0.0 0
M  V30 36 O 12.9903 -6.75 0.0 0
M  V30 END ATOM
M  V30 BEGIN BOND
M  V30 1 1 1 2
M  V30 2 2 2 3
M  V30 3 1 2 4
M  V30 4 1 3 5
M  V30 5 2 4 6
M  V30 6 2 5 7
M  V30 7 1 7 8
M  V30 8 2 8 9
M  V30 9 1 8 10
M  V30 10 1 9 11
M  V30 11 1 9 12
M  V30 12 2 10 13
M  V30 13 1 11 14
M  V30 14 2 11 15
M  V30 15 1 14 16
M  V30 16 1 14 17
M  V30 17 2 16 18
M  V30 18 2 16 19
M  V30 19 1 16 20
M  V30 20 1 17 21
M  V30 21 2 20 22
M  V30 22 1 20 23
M  V30 23 1 21 24
M  V30 24 1 22 25
M  V30 25 1 22 26
M  V30 26 2 23 27
M  V30 27 1 24 28
M  V30 28 2 25 29
M  V30 29 1 25 30
M  V30 30 1 29 31
M  V30 31 1 31 32
M  V30 32 1 32 33
M  V30 33 1 32 34 CFG=3
M  V30 34 2 33 35
M  V30 35 1 33 36
M  V30 36 1 6 7
M  V30 37 1 13 15
M  V30 38 1 27 29
M  V30 END BOND
M  V30 BEGIN COLLECTION
M  V30 MDLV30/STERAC1 ATOMS=(1 32)
M  V30 END COLLECTION
M  V30 END CTAB
M  END
>  <Molecule ChEMBL ID>
CHEMBL1760267

>  <Smiles>
CCCCN(c1cccc(-c2ccc(Cl)cc2)c1C)S(=O)(=O)c1ccc(OC(C)C(=O)O)c(C)c1C

>  <IC50_nM>
7943.28

>  <Assay Description>
Displacement of [3H]GW 2433 from human PPARgamma by scintillation proximity assay

$$$$
CHEMBL1760408
Actelion Java MolfileCreator 2.0

  0  0  0  0  0  0              0 V3000
M  V30 BEGIN CTAB
M  V30 COUNTS 36 39 0 0 0
M  V30 BEGIN ATOM
M  V30 1 Cl -3.8971 -7.5 0.0 0
M  V30 2 C -2.598 -6.75 0.0 0
M  V30 3 C -2.598 -5.25 0.0 0
M  V30 4 C -1.299 -7.5 0.0 0
M  V30 5 C -1.299 -4.5 0.0 0
M  V30 6 C 0.0 -6.75 0.0 0
M  V30 7 C 0.0 -5.25 0.0 0
M  V30 8 C 1.299 -4.5 0.0 0
M  V30 9 C 1.299 -3.0 0.0 0
M  V30 10 C 2.598 -5.25 0.0 0
M  V30 11 C 2.598 -2.25 0.0 0
M  V30 12 C 0.0 -2.25 0.0 0
M  V30 13 C 3.8971 -4.5 0.0 0
M  V30 14 N 2.598 -0.75 0.0 0
M  V30 15 C 3.8971 -3.0 0.0 0
M  V30 16 S 3.8971 0.0 0.0 0
M  V30 17 C 1.299 0.0 0.0 0
M  V30 18 O 4.6471 1.299 0.0 0
M  V30 19 O 3.1471 1.299 0.0 0
M  V30 20 C 5.1961 -0.75 0.0 0
M  V30 21 C 1.299 1.5 0.0 0
M  V30 22 C 6.4951 0.0 0.0 0
M  V30 23 C 5.1961 -2.25 0.0 0
M  V30 24 C 0.549 2.799 0.0 0
M  V30 25 C 2.049 2.799 0.0 0
M  V30 26 C 7.7942 -0.75 0.0 0
M  V30 27 C 6.4951 1.5 0.0 0
M  V30 28 C 6.4951 -3.0 0.0 0
M  V30 29 C 7.7942 -2.25 0.0 0
M  V30 30 C 9.0932 0.0 0.0 0
M  V30 31 O 9.0932 -3.0 0.0 0
M  V30 32 C 9.0932 -4.5 0.0 0 CFG=2
M  V30 33 C 10.3923 -5.25 0.0 0
M  V30 34 C 7.7942 -5.25 0.0 0
M  V30 35 O 11.6913 -4.5 0.0 0
M  V30 36 O 10.3923 -6.75 0.0 0
M  V30 END ATOM
M  V30 BEGIN BOND
M  V30 1 1 1 2
M  V30 2 2 2 3
M  V30 3 1 2 4
M  V30 4 1 3 5
M  V30 5 2 4 6
M  V30 6 2 5 7
M  V30 7 1 7 8
M  V30 8 2 8 9
M  V30 9 1 8 10
M  V30 10 1 9 11
M  V30 11 1 9 12
M  V30 12 2 10 13
M  V30 13 1 11 14
M  V30 14 2 11 15
M  V30 15 1 14 16
M  V30 16 1 14 17
M  V30 17 2 16 18
M  V30 18 2 16 19
M  V30 19 1 16 20
M  V30 20 1 17 21
M  V30 21 2 20 22
M  V30 22 1 20 23
M  V30 23 1 21 24
M  V30 24 1 21 25
M  V30 25 1 22 26
M  V30 26 1 22 27
M  V30 27 2 23 28
M  V30 28 2 26 29
M  V30 29 1 26 30
M  V30 30 1 29 31
M  V30 31 1 31 32
M  V30 32 1 32 33
M  V30 33 1 32 34 CFG=3
M  V30 34 2 33 35
M  V30 35 1 33 36
M  V30 36 1 6 7
M  V30 37 1 13 15
M  V30 38 1 24 25
M  V30 39 1 28 29
M  V30 END BOND
M  V30 BEGIN COLLECTION
M  V30 MDLV30/STERAC1 ATOMS=(1 32)
M  V30 END COLLECTION
M  V30 END CTAB
M  END
>  <Molecule ChEMBL ID>
CHEMBL1760408

>  <Smiles>
Cc1c(-c2ccc(Cl)cc2)cccc1N(CC1CC1)S(=O)(=O)c1ccc(OC(C)C(=O)O)c(C)c1C

>  <IC50_nM>
7943.28

>  <Assay Description>
Displacement of [3H]GW 2433 from human PPARgamma by scintillation proximity assay

$$$$
CHEMBL1760420
Actelion Java MolfileCreator 2.0

  0  0  0  0  0  0              0 V3000
M  V30 BEGIN CTAB
M  V30 COUNTS 38 40 0 0 0
M  V30 BEGIN ATOM
M  V30 1 Cl 11.6913 -7.5 0.0 0
M  V30 2 C 10.3923 -6.75 0.0 0
M  V30 3 C 10.3923 -5.25 0.0 0
M  V30 4 C 9.0932 -7.5 0.0 0
M  V30 5 C 9.0932 -4.5 0.0 0
M  V30 6 C 7.7942 -6.75 0.0 0
M  V30 7 C 7.7942 -5.25 0.0 0
M  V30 8 C 6.4951 -4.5 0.0 0
M  V30 9 C 6.4951 -3.0 0.0 0
M  V30 10 C 5.1961 -5.25 0.0 0
M  V30 11 C 5.1961 -2.25 0.0 0
M  V30 12 C 7.7942 -2.25 0.0 0
M  V30 13 C 3.8971 -4.5 0.0 0
M  V30 14 C 5.1961 -6.75 0.0 0
M  V30 15 N 5.1961 -0.75 0.0 0
M  V30 16 C 3.8971 -3.0 0.0 0
M  V30 17 S 6.4951 0.0 0.0 0
M  V30 18 C 3.8971 0.0 0.0 0
M  V30 19 C 2.598 -2.25 0.0 0
M  V30 20 O 7.9951 0.0 0.0 0
M  V30 21 O 7.2451 -1.299 0.0 0
M  V30 22 C 6.4951 1.5 0.0 0
M  V30 23 C 2.598 -0.75 0.0 0
M  V30 24 C 7.7942 2.25 0.0 0
M  V30 25 C 5.1961 2.25 0.0 0
M  V30 26 C 1.299 0.0 0.0 0
M  V30 27 C 7.7942 3.75 0.0 0
M  V30 28 C 9.0932 1.5 0.0 0
M  V30 29 C 5.1961 3.75 0.0 0
M  V30 30 C 0.0 -0.75 0.0 0
M  V30 31 C 6.4951 4.5 0.0 0
M  V30 32 C 9.0932 4.5 0.0 0
M  V30 33 O 6.4951 6.0 0.0 0
M  V30 34 C 7.7942 6.75 0.0 0 CFG=2
M  V30 35 C 7.7942 8.25 0.0 0
M  V30 36 C 9.0932 6.0 0.0 0
M  V30 37 O 6.4951 9.0 0.0 0
M  V30 38 O 9.0932 9.0 0.0 0
M  V30 END ATOM
M  V30 BEGIN BOND
M  V30 1 1 1 2
M  V30 2 2 2 3
M  V30 3 1 2 4
M  V30 4 1 3 5
M  V30 5 2 4 6
M  V30 6 2 5 7
M  V30 7 1 7 8
M  V30 8 2 8 9
M  V30 9 1 8 10
M  V30 10 1 9 11
M  V30 11 1 9 12
M  V30 12 2 10 13
M  V30 13 1 10 14
M  V30 14 1 11 15
M  V30 15 2 11 16
M  V30 16 1 15 17
M  V30 17 1 15 18
M  V30 18 1 16 19
M  V30 19 2 17 20
M  V30 20 2 17 21
M  V30 21 1 17 22
M  V30 22 1 18 23
M  V30 23 2 22 24
M  V30 24 1 22 25
M  V30 25 1 23 26
M  V30 26 1 24 27
M  V30 27 1 24 28
M  V30 28 2 25 29
M  V30 29 1 26 30
M  V30 30 2 27 31
M  V30 31 1 27 32
M  V30 32 1 31 33
M  V30 33 1 33 34
M  V30 34 1 34 35
M  V30 35 1 34 36 CFG=3
M  V30 36 2 35 37
M  V30 37 1 35 38
M  V30 38 1 6 7
M  V30 39 1 13 16
M  V30 40 1 29 31
M  V30 END BOND
M  V30 BEGIN COLLECTION
M  V30 MDLV30/STERAC1 ATOMS=(1 34)
M  V30 END COLLECTION
M  V30 END CTAB
M  END
>  <Molecule ChEMBL ID>
CHEMBL1760420

>  <Smiles>
CCCCN(c1c(C)cc(C)c(-c2ccc(Cl)cc2)c1C)S(=O)(=O)c1ccc(OC(C)C(=O)O)c(C)c1C

>  <IC50_nM>
7943.28

>  <Assay Description>
Displacement of [3H]GW 2433 from human PPARgamma by scintillation proximity assay

$$$$
CHEMBL4542058
Actelion Java MolfileCreator 2.0

  0  0  0  0  0  0              0 V3000
M  V30 BEGIN CTAB
M  V30 COUNTS 30 32 0 0 0
M  V30 BEGIN ATOM
M  V30 1 Cl 6.9282 -3.5 0.0 0
M  V30 2 C 6.0621 -3.0 0.0 0
M  V30 3 C 5.1961 -3.5 0.0 0
M  V30 4 C 6.0621 -2.0 0.0 0
M  V30 5 O 5.1961 -4.5 0.0 0
M  V30 6 C 4.3301 -3.0 0.0 0
M  V30 7 C 5.1961 -1.5 0.0 0
M  V30 8 O 3.4641 -3.5 0.0 0
M  V30 9 C 4.3301 -2.0 0.0 0
M  V30 10 C 5.1961 -0.5 0.0 0
M  V30 11 C 3.4641 -4.5 0.0 0
M  V30 12 C 6.0621 0.0 0.0 0
M  V30 13 C 2.598 -5.0 0.0 0
M  V30 14 S 6.9757 -0.4067 0.0 0
M  V30 15 C 6.1667 0.9945 0.0 0
M  V30 16 C 7.6448 0.3364 0.0 0
M  V30 17 O 5.4235 1.6636 0.0 0
M  V30 18 N 7.1448 1.2024 0.0 0
M  V30 19 N 8.6393 0.2318 0.0 0
M  V30 20 C 7.5515 2.1159 0.0 0
M  V30 21 C 9.2271 1.0408 0.0 0
M  V30 22 C 10.2216 0.9363 0.0 0
M  V30 23 C 8.8204 1.9544 0.0 0
M  V30 24 C 10.8094 1.7453 0.0 0
M  V30 25 C 9.4082 2.7634 0.0 0
M  V30 26 C 10.4027 2.6589 0.0 0
M  V30 27 C 11.8039 1.6408 0.0 0
M  V30 28 Cl 10.9905 3.4679 0.0 0
M  V30 29 O 12.2107 0.7273 0.0 0
M  V30 30 O 12.3917 2.4498 0.0 0
M  V30 END ATOM
M  V30 BEGIN BOND
M  V30 1 1 1 2
M  V30 2 2 2 3
M  V30 3 1 2 4
M  V30 4 1 3 5
M  V30 5 1 3 6
M  V30 6 2 4 7
M  V30 7 1 6 8
M  V30 8 2 6 9
M  V30 9 1 7 10
M  V30 10 1 8 11
M  V30 11 2 10 12
M  V30 12 1 11 13
M  V30 13 1 12 14
M  V30 14 1 12 15
M  V30 15 1 14 16
M  V30 16 2 15 17
M  V30 17 1 15 18
M  V30 18 2 16 19
M  V30 19 1 18 20
M  V30 20 1 19 21
M  V30 21 2 21 22
M  V30 22 1 21 23
M  V30 23 1 22 24
M  V30 24 2 23 25
M  V30 25 2 24 26
M  V30 26 1 24 27
M  V30 27 1 26 28
M  V30 28 2 27 29
M  V30 29 1 27 30
M  V30 30 1 7 9
M  V30 31 1 16 18
M  V30 32 1 25 26
M  V30 END BOND
M  V30 END CTAB
M  END
>  <Molecule ChEMBL ID>
CHEMBL4542058

>  <Smiles>
CCOc1cc(/C=C2\S/C(=N/c3ccc(Cl)c(C(=O)O)c3)N(C)C2=O)cc(Cl)c1O

>  <IC50_nM>
7970

>  <Assay Description>
Antagonist activity at human PPARgamma LBD expressed in yeast AH109 cells assessed as reduction in rosiglitazone-stimulated PPARgamma/CBP interaction by measuring alpha galactosidase activity using PNP-alpha-Gal as substrate by alpha-galactosidase based yeast-two hybrid assay

$$$$
CHEMBL2037078
Actelion Java MolfileCreator 2.0

  0  0  0  0  0  0              0 V3000
M  V30 BEGIN CTAB
M  V30 COUNTS 35 38 0 0 0
M  V30 BEGIN ATOM
M  V30 1 F 13.9704 1.5854 0.0 0
M  V30 2 C 13.5637 0.6719 0.0 0
M  V30 3 F 14.4772 0.2651 0.0 0
M  V30 4 F 13.157 -0.2416 0.0 0
M  V30 5 C 12.6502 1.0786 0.0 0
M  V30 6 C 12.5456 2.0731 0.0 0
M  V30 7 C 11.8411 0.4908 0.0 0
M  V30 8 C 11.6321 2.4799 0.0 0
M  V30 9 C 10.9276 0.8975 0.0 0
M  V30 10 C 10.8231 1.8921 0.0 0
M  V30 11 C 9.9095 2.2988 0.0 0
M  V30 12 O 9.7016 3.277 0.0 0
M  V30 13 N 9.0435 1.7988 0.0 0
M  V30 14 C 8.7071 3.3815 0.0 0
M  V30 15 C 8.3003 2.4679 0.0 0
M  V30 16 C 8.2071 4.2475 0.0 0
M  V30 17 C 7.3222 2.26 0.0 0
M  V30 18 N 7.0132 1.309 0.0 0
M  V30 19 C 6.0621 0.9999 0.0 0
M  V30 20 C 7.601 0.5 0.0 0
M  V30 21 C 6.0621 0.0 0.0 0
M  V30 22 C 5.1961 1.4999 0.0 0
M  V30 23 C 7.0132 -0.309 0.0 0
M  V30 24 C 8.601 0.5 0.0 0
M  V30 25 C 5.1961 -0.5 0.0 0
M  V30 26 C 4.3301 0.9999 0.0 0
M  V30 27 C 4.3301 0.0 0.0 0
M  V30 28 C 3.4641 -0.5 0.0 0
M  V30 29 C 2.598 0.0 0.0 0 CFG=1
M  V30 30 O 1.732 -0.5 0.0 0
M  V30 31 C 2.598 1.0 0.0 0
M  V30 32 C 0.866 0.0 0.0 0
M  V30 33 O 3.4641 1.4999 0.0 0
M  V30 34 O 1.732 1.5 0.0 0
M  V30 35 C 0.0 -0.5 0.0 0
M  V30 END ATOM
M  V30 BEGIN BOND
M  V30 1 1 1 2
M  V30 2 1 2 3
M  V30 3 1 2 4
M  V30 4 1 2 5
M  V30 5 2 5 6
M  V30 6 1 5 7
M  V30 7 1 6 8
M  V30 8 2 7 9
M  V30 9 2 8 10
M  V30 10 1 10 11
M  V30 11 1 11 12
M  V30 12 2 11 13
M  V30 13 1 12 14
M  V30 14 1 13 15
M  V30 15 1 14 16
M  V30 16 1 15 17
M  V30 17 1 17 18
M  V30 18 1 18 19
M  V30 19 1 18 20
M  V30 20 2 19 21
M  V30 21 1 19 22
M  V30 22 2 20 23
M  V30 23 1 20 24
M  V30 24 1 21 25
M  V30 25 2 22 26
M  V30 26 2 25 27
M  V30 27 1 27 28
M  V30 28 1 28 29
M  V30 29 1 29 30 CFG=1
M  V30 30 1 29 31
M  V30 31 1 30 32
M  V30 32 2 31 33
M  V30 33 1 31 34
M  V30 34 1 32 35
M  V30 35 1 9 10
M  V30 36 2 14 15
M  V30 37 1 21 23
M  V30 38 1 26 27
M  V30 END BOND
M  V30 BEGIN COLLECTION
M  V30 MDLV30/STEABS ATOMS=(1 29)
M  V30 END COLLECTION
M  V30 END CTAB
M  END
>  <Molecule ChEMBL ID>
CHEMBL2037078

>  <Smiles>
CCO[C@H](Cc1ccc2c(c1)cc(C)n2Cc1nc(-c2ccc(C(F)(F)F)cc2)oc1C)C(=O)O

>  <IC50_nM>
7998.34

>  <Assay Description>
Agonist activity at PPARgamma

$$$$
CHEMBL212813
Actelion Java MolfileCreator 2.0

  0  0  0  0  0  0              0 V3000
M  V30 BEGIN CTAB
M  V30 COUNTS 35 38 0 0 0
M  V30 BEGIN ATOM
M  V30 1 F 13.9704 1.5854 0.0 0
M  V30 2 C 13.5637 0.6719 0.0 0
M  V30 3 F 14.4772 0.2651 0.0 0
M  V30 4 F 13.157 -0.2416 0.0 0
M  V30 5 C 12.6502 1.0786 0.0 0
M  V30 6 C 12.5456 2.0731 0.0 0
M  V30 7 C 11.8411 0.4908 0.0 0
M  V30 8 C 11.6321 2.4799 0.0 0
M  V30 9 C 10.9276 0.8975 0.0 0
M  V30 10 C 10.8231 1.8921 0.0 0
M  V30 11 C 9.9095 2.2988 0.0 0
M  V30 12 O 9.7016 3.277 0.0 0
M  V30 13 N 9.0435 1.7988 0.0 0
M  V30 14 C 8.7071 3.3815 0.0 0
M  V30 15 C 8.3003 2.4679 0.0 0
M  V30 16 C 8.2071 4.2475 0.0 0
M  V30 17 C 7.3222 2.26 0.0 0
M  V30 18 N 7.0132 1.309 0.0 0
M  V30 19 C 6.0621 0.9999 0.0 0
M  V30 20 C 7.601 0.5 0.0 0
M  V30 21 C 6.0621 0.0 0.0 0
M  V30 22 C 5.1961 1.4999 0.0 0
M  V30 23 C 7.0132 -0.309 0.0 0
M  V30 24 C 8.601 0.5 0.0 0
M  V30 25 C 5.1961 -0.5 0.0 0
M  V30 26 C 4.3301 0.9999 0.0 0
M  V30 27 C 4.3301 0.0 0.0 0
M  V30 28 C 3.4641 -0.5 0.0 0
M  V30 29 C 2.598 0.0 0.0 0 CFG=2
M  V30 30 O 1.732 -0.5 0.0 0
M  V30 31 C 2.598 1.0 0.0 0
M  V30 32 C 0.866 0.0 0.0 0
M  V30 33 O 3.4641 1.4999 0.0 0
M  V30 34 O 1.732 1.5 0.0 0
M  V30 35 C 0.0 -0.5 0.0 0
M  V30 END ATOM
M  V30 BEGIN BOND
M  V30 1 1 1 2
M  V30 2 1 2 3
M  V30 3 1 2 4
M  V30 4 1 2 5
M  V30 5 2 5 6
M  V30 6 1 5 7
M  V30 7 1 6 8
M  V30 8 2 7 9
M  V30 9 2 8 10
M  V30 10 1 10 11
M  V30 11 1 11 12
M  V30 12 2 11 13
M  V30 13 1 12 14
M  V30 14 1 13 15
M  V30 15 1 14 16
M  V30 16 1 15 17
M  V30 17 1 17 18
M  V30 18 1 18 19
M  V30 19 1 18 20
M  V30 20 2 19 21
M  V30 21 1 19 22
M  V30 22 2 20 23
M  V30 23 1 20 24
M  V30 24 1 21 25
M  V30 25 2 22 26
M  V30 26 2 25 27
M  V30 27 1 27 28
M  V30 28 1 28 29
M  V30 29 1 29 30 CFG=3
M  V30 30 1 29 31
M  V30 31 1 30 32
M  V30 32 2 31 33
M  V30 33 1 31 34
M  V30 34 1 32 35
M  V30 35 1 9 10
M  V30 36 2 14 15
M  V30 37 1 21 23
M  V30 38 1 26 27
M  V30 END BOND
M  V30 BEGIN COLLECTION
M  V30 MDLV30/STERAC1 ATOMS=(1 29)
M  V30 END COLLECTION
M  V30 END CTAB
M  END
>  <Molecule ChEMBL ID>
CHEMBL212813

>  <Smiles>
CCOC(Cc1ccc2c(c1)cc(C)n2Cc1nc(-c2ccc(C(F)(F)F)cc2)oc1C)C(=O)O

>  <IC50_nM>
8000

>  <Assay Description>
Binding affinity to PPARgamma by radio ligand binding assay

$$$$
CHEMBL595
Actelion Java MolfileCreator 2.0

  0  0  0  0  0  0              0 V3000
M  V30 BEGIN CTAB
M  V30 COUNTS 25 27 0 0 0
M  V30 BEGIN ATOM
M  V30 1 S 5.2531 -3.5877 0.0 0
M  V30 2 C 5.5621 -4.5388 0.0 0
M  V30 3 C 6.0621 -3.0 0.0 0 CFG=2
M  V30 4 O 4.9743 -5.3478 0.0 0
M  V30 5 N 6.5621 -4.5388 0.0 0
M  V30 6 C 6.8711 -3.5877 0.0 0
M  V30 7 C 6.0621 -1.9999 0.0 0
M  V30 8 O 7.8222 -3.2787 0.0 0
M  V30 9 C 5.1961 -1.4999 0.0 0
M  V30 10 C 5.1961 -0.5 0.0 0
M  V30 11 C 4.3301 -1.9999 0.0 0
M  V30 12 C 4.3301 0.0 0.0 0
M  V30 13 C 3.4641 -1.5 0.0 0
M  V30 14 C 3.4641 -0.5 0.0 0
M  V30 15 O 2.598 0.0 0.0 0
M  V30 16 C 1.732 -0.5 0.0 0
M  V30 17 C 0.866 0.0 0.0 0
M  V30 18 C 0.0 -0.5 0.0 0
M  V30 19 N -0.866 0.0 0.0 0
M  V30 20 C 0.0 -1.4999 0.0 0
M  V30 21 C -1.732 -0.4999 0.0 0
M  V30 22 C -0.866 -1.9999 0.0 0
M  V30 23 C -1.732 -1.4999 0.0 0
M  V30 24 C -2.598 -1.9999 0.0 0
M  V30 25 C -2.598 -2.9999 0.0 0
M  V30 END ATOM
M  V30 BEGIN BOND
M  V30 1 1 1 2
M  V30 2 1 1 3
M  V30 3 2 2 4
M  V30 4 1 2 5
M  V30 5 1 3 6
M  V30 6 1 3 7 CFG=1
M  V30 7 2 6 8
M  V30 8 1 7 9
M  V30 9 2 9 10
M  V30 10 1 9 11
M  V30 11 1 10 12
M  V30 12 2 11 13
M  V30 13 2 12 14
M  V30 14 1 14 15
M  V30 15 1 15 16
M  V30 16 1 16 17
M  V30 17 1 17 18
M  V30 18 2 18 19
M  V30 19 1 18 20
M  V30 20 1 19 21
M  V30 21 2 20 22
M  V30 22 2 21 23
M  V30 23 1 23 24
M  V30 24 1 24 25
M  V30 25 1 5 6
M  V30 26 1 13 14
M  V30 27 1 22 23
M  V30 END BOND
M  V30 BEGIN COLLECTION
M  V30 MDLV30/STERAC1 ATOMS=(1 3)
M  V30 END COLLECTION
M  V30 END CTAB
M  END
>  <Molecule ChEMBL ID>
CHEMBL595

>  <Smiles>
CCc1ccc(CCOc2ccc(CC3SC(=O)NC3=O)cc2)nc1

>  <IC50_nM>
8000

>  <Assay Description>
Inhibition of fluormone binding to human PPARgamma LBD after 2 hrs by competitive fluorescence polarization assay

$$$$
CHEMBL2031857
Actelion Java MolfileCreator 2.0

  0  0  0  0  0  0              0 V3000
M  V30 BEGIN CTAB
M  V30 COUNTS 30 31 0 0 0
M  V30 BEGIN ATOM
M  V30 1 F 20.2355 -6.2009 0.0 0
M  V30 2 C 19.4855 -7.5 0.0 0
M  V30 3 F 20.7846 -8.25 0.0 0
M  V30 4 F 18.7355 -8.799 0.0 0
M  V30 5 C 18.1865 -6.75 0.0 0
M  V30 6 C 18.1865 -5.2499 0.0 0
M  V30 7 C 16.8874 -7.5 0.0 0
M  V30 8 C 16.8874 -4.5 0.0 0
M  V30 9 C 15.5884 -6.75 0.0 0
M  V30 10 C 15.5884 -5.25 0.0 0
M  V30 11 C 14.2894 -4.5 0.0 0
M  V30 12 C 14.2894 -3.0 0.0 0
M  V30 13 C 12.9903 -2.25 0.0 0
M  V30 14 C 12.9903 -0.75 0.0 0
M  V30 15 C 11.6913 -3.0 0.0 0
M  V30 16 C 11.6913 0.0 0.0 0
M  V30 17 C 10.3923 -2.25 0.0 0
M  V30 18 O 11.6913 1.4999 0.0 0
M  V30 19 C 10.3923 -0.75 0.0 0
M  V30 20 O 9.0932 -2.9999 0.0 0
M  V30 21 C 9.0932 0.0 0.0 0
M  V30 22 C 7.7942 -0.75 0.0 0
M  V30 23 C 6.4951 0.0 0.0 0
M  V30 24 C 5.1961 -0.75 0.0 0
M  V30 25 C 6.4951 1.5 0.0 0
M  V30 26 C 3.8971 0.0 0.0 0
M  V30 27 C 2.598 -0.75 0.0 0
M  V30 28 C 1.299 0.0 0.0 0
M  V30 29 C 1.299 1.5 0.0 0
M  V30 30 C 0.0 -0.75 0.0 0
M  V30 END ATOM
M  V30 BEGIN BOND
M  V30 1 1 1 2
M  V30 2 1 2 3
M  V30 3 1 2 4
M  V30 4 1 2 5
M  V30 5 2 5 6
M  V30 6 1 5 7
M  V30 7 1 6 8
M  V30 8 2 7 9
M  V30 9 2 8 10
M  V30 10 1 10 11
M  V30 11 2 11 12
M  V30 12 1 12 13
M  V30 13 2 13 14
M  V30 14 1 13 15
M  V30 15 1 14 16
M  V30 16 2 15 17
M  V30 17 1 16 18
M  V30 18 2 16 19
M  V30 19 1 17 20
M  V30 20 1 19 21
M  V30 21 1 21 22
M  V30 22 2 22 23
M  V30 23 1 23 24
M  V30 24 1 23 25
M  V30 25 1 24 26
M  V30 26 1 26 27
M  V30 27 2 27 28
M  V30 28 1 28 29
M  V30 29 1 28 30
M  V30 30 1 9 10
M  V30 31 1 17 19
M  V30 END BOND
M  V30 END CTAB
M  END
>  <Molecule ChEMBL ID>
CHEMBL2031857

>  <Smiles>
CC(C)=CCC/C(C)=C/Cc1c(O)cc(/C=C/c2ccc(C(F)(F)F)cc2)cc1O

>  <IC50_nM>
8100

>  <Assay Description>
Binding affinity to GST-tagged human PPARgamma by TR-FRET analysis

$$$$
CHEMBL3398462
Actelion Java MolfileCreator 2.0

  0  0  0  0  0  0              0 V3000
M  V30 BEGIN CTAB
M  V30 COUNTS 36 39 0 0 0
M  V30 BEGIN ATOM
M  V30 1 O 9.9121 0.1816 0.0 0
M  V30 2 C 9.5054 -0.7318 0.0 0
M  V30 3 O 10.0931 -1.5408 0.0 0
M  V30 4 N 8.5108 -0.8364 0.0 0
M  V30 5 C 9.6864 -2.4544 0.0 0
M  V30 6 C 7.8417 -0.0932 0.0 0
M  V30 7 C 8.0108 -1.7024 0.0 0
M  V30 8 C 10.2742 -3.2634 0.0 0
M  V30 9 C 6.9282 -0.4999 0.0 0 CFG=1
M  V30 10 C 7.0327 -1.4945 0.0 0 CFG=1
M  V30 11 C 6.0621 0.0 0.0 0
M  V30 12 C 6.2895 -2.1636 0.0 0
M  V30 13 C 5.1961 -0.5 0.0 0
M  V30 14 C 6.4974 -3.1418 0.0 0
M  V30 15 C 4.3301 0.0 0.0 0
M  V30 16 C 5.1961 -1.4999 0.0 0
M  V30 17 O 7.4485 -3.4508 0.0 0
M  V30 18 O 5.7543 -3.8109 0.0 0
M  V30 19 C 3.4641 -0.5 0.0 0
M  V30 20 C 4.3301 -1.9999 0.0 0
M  V30 21 O 2.598 0.0 0.0 0
M  V30 22 C 3.4641 -1.4999 0.0 0
M  V30 23 C 1.732 -0.5 0.0 0
M  V30 24 C 0.866 0.0 0.0 0
M  V30 25 C 0.0 -0.5 0.0 0
M  V30 26 N -0.9135 -0.0932 0.0 0
M  V30 27 C -0.1045 -1.4945 0.0 0
M  V30 28 C -1.5826 -0.8364 0.0 0
M  V30 29 O -1.0826 -1.7024 0.0 0
M  V30 30 C 0.6386 -2.1636 0.0 0
M  V30 31 C -2.5771 -0.7318 0.0 0
M  V30 32 C -2.9839 0.1816 0.0 0
M  V30 33 C -3.1649 -1.5408 0.0 0
M  V30 34 C -3.9784 0.2861 0.0 0
M  V30 35 C -4.1595 -1.4363 0.0 0
M  V30 36 C -4.5662 -0.5228 0.0 0
M  V30 END ATOM
M  V30 BEGIN BOND
M  V30 1 2 1 2
M  V30 2 1 2 3
M  V30 3 1 2 4
M  V30 4 1 3 5
M  V30 5 1 4 6
M  V30 6 1 4 7
M  V30 7 1 5 8
M  V30 8 1 6 9
M  V30 9 1 7 10
M  V30 10 1 9 11 CFG=1
M  V30 11 1 10 12 CFG=3
M  V30 12 1 11 13
M  V30 13 1 12 14
M  V30 14 2 13 15
M  V30 15 1 13 16
M  V30 16 2 14 17
M  V30 17 1 14 18
M  V30 18 1 15 19
M  V30 19 2 16 20
M  V30 20 1 19 21
M  V30 21 2 19 22
M  V30 22 1 21 23
M  V30 23 1 23 24
M  V30 24 1 24 25
M  V30 25 1 25 26
M  V30 26 2 25 27
M  V30 27 2 26 28
M  V30 28 1 27 29
M  V30 29 1 27 30
M  V30 30 1 28 31
M  V30 31 2 31 32
M  V30 32 1 31 33
M  V30 33 1 32 34
M  V30 34 2 33 35
M  V30 35 2 34 36
M  V30 36 1 9 10
M  V30 37 1 20 22
M  V30 38 1 28 29
M  V30 39 1 35 36
M  V30 END BOND
M  V30 BEGIN COLLECTION
M  V30 MDLV30/STEABS ATOMS=(2 9 10)
M  V30 END COLLECTION
M  V30 END CTAB
M  END
>  <Molecule ChEMBL ID>
CHEMBL3398462

>  <Smiles>
CCOC(=O)N1C[C@H](CC(=O)O)[C@@H](Cc2cccc(OCCc3nc(-c4ccccc4)oc3C)c2)C1

>  <IC50_nM>
8110

>  <Assay Description>
Binding affinity to PPARgamma (unknown origin) using fluorescein-tagged dual PPARalpha/gamma activator by homogeneous fluorescence polarization binding assay

$$$$
CHEMBL3398440
Actelion Java MolfileCreator 2.0

  0  0  0  0  0  0              0 V3000
M  V30 BEGIN CTAB
M  V30 COUNTS 35 38 0 0 0
M  V30 BEGIN ATOM
M  V30 1 O 9.4121 -2.7205 0.0 0
M  V30 2 C 8.4176 -2.6159 0.0 0
M  V30 3 O 7.8298 -3.4249 0.0 0
M  V30 4 N 8.0108 -1.7024 0.0 0
M  V30 5 C 6.8353 -3.3204 0.0 0
M  V30 6 C 8.5108 -0.8364 0.0 0
M  V30 7 C 7.0327 -1.4945 0.0 0
M  V30 8 C 6.2475 -4.1294 0.0 0
M  V30 9 C 7.8417 -0.0932 0.0 0 CFG=1
M  V30 10 C 6.9282 -0.5 0.0 0 CFG=1
M  V30 11 C 8.0496 0.8848 0.0 0
M  V30 12 C 6.0621 0.0 0.0 0
M  V30 13 O 9.0007 1.1939 0.0 0
M  V30 14 O 7.3065 1.554 0.0 0
M  V30 15 C 5.1961 -0.5 0.0 0
M  V30 16 C 4.3301 0.0 0.0 0
M  V30 17 C 5.1961 -1.4999 0.0 0
M  V30 18 C 3.4641 -0.5 0.0 0
M  V30 19 C 4.3301 -1.9999 0.0 0
M  V30 20 O 2.598 0.0 0.0 0
M  V30 21 C 3.4641 -1.4999 0.0 0
M  V30 22 C 1.732 -0.5 0.0 0
M  V30 23 C 0.866 0.0 0.0 0
M  V30 24 C 0.0 -0.5 0.0 0
M  V30 25 N -0.9135 -0.0932 0.0 0
M  V30 26 C -0.1045 -1.4945 0.0 0
M  V30 27 C -1.5826 -0.8364 0.0 0
M  V30 28 O -1.0826 -1.7024 0.0 0
M  V30 29 C 0.6386 -2.1636 0.0 0
M  V30 30 C -2.5771 -0.7318 0.0 0
M  V30 31 C -2.9839 0.1816 0.0 0
M  V30 32 C -3.1649 -1.5408 0.0 0
M  V30 33 C -3.9784 0.2861 0.0 0
M  V30 34 C -4.1595 -1.4363 0.0 0
M  V30 35 C -4.5662 -0.5228 0.0 0
M  V30 END ATOM
M  V30 BEGIN BOND
M  V30 1 2 1 2
M  V30 2 1 2 3
M  V30 3 1 2 4
M  V30 4 1 3 5
M  V30 5 1 4 6
M  V30 6 1 4 7
M  V30 7 1 5 8
M  V30 8 1 6 9
M  V30 9 1 7 10
M  V30 10 1 9 11 CFG=1
M  V30 11 1 10 12 CFG=3
M  V30 12 2 11 13
M  V30 13 1 11 14
M  V30 14 1 12 15
M  V30 15 2 15 16
M  V30 16 1 15 17
M  V30 17 1 16 18
M  V30 18 2 17 19
M  V30 19 1 18 20
M  V30 20 2 18 21
M  V30 21 1 20 22
M  V30 22 1 22 23
M  V30 23 1 23 24
M  V30 24 1 24 25
M  V30 25 2 24 26
M  V30 26 2 25 27
M  V30 27 1 26 28
M  V30 28 1 26 29
M  V30 29 1 27 30
M  V30 30 2 30 31
M  V30 31 1 30 32
M  V30 32 1 31 33
M  V30 33 2 32 34
M  V30 34 2 33 35
M  V30 35 1 9 10
M  V30 36 1 19 21
M  V30 37 1 27 28
M  V30 38 1 34 35
M  V30 END BOND
M  V30 BEGIN COLLECTION
M  V30 MDLV30/STEABS ATOMS=(2 9 10)
M  V30 END COLLECTION
M  V30 END CTAB
M  END
>  <Molecule ChEMBL ID>
CHEMBL3398440

>  <Smiles>
CCOC(=O)N1C[C@H](Cc2cccc(OCCc3nc(-c4ccccc4)oc3C)c2)[C@@H](C(=O)O)C1

>  <IC50_nM>
8110

>  <Assay Description>
Binding affinity to PPARgamma (unknown origin) using fluorescein-tagged dual PPARalpha/gamma activator by homogeneous fluorescence polarization binding assay

$$$$
CHEMBL445942
Actelion Java MolfileCreator 2.0

  0  0  0  0  0  0              0 V3000
M  V30 BEGIN CTAB
M  V30 COUNTS 40 44 0 0 0
M  V30 BEGIN ATOM
M  V30 1 O 9.5262 0.0 0.0 0
M  V30 2 C 8.6602 -0.5 0.0 0
M  V30 3 O 8.6602 -1.5 0.0 0
M  V30 4 N 7.7942 0.0 0.0 0
M  V30 5 C 7.7942 -2.0 0.0 0
M  V30 6 C 6.9282 -0.5 0.0 0
M  V30 7 C 7.7942 0.9999 0.0 0
M  V30 8 C 7.7942 -3.0 0.0 0
M  V30 9 C 6.9282 -1.5 0.0 0
M  V30 10 C 6.0621 0.0 0.0 0
M  V30 11 C 6.9282 1.4999 0.0 0
M  V30 12 C 6.9282 -3.5 0.0 0
M  V30 13 C 6.0621 -2.0 0.0 0
M  V30 14 C 5.1961 -0.5 0.0 0
M  V30 15 C 6.0621 0.9999 0.0 0
M  V30 16 C 6.0621 -3.0 0.0 0
M  V30 17 C 4.3301 0.0 0.0 0
M  V30 18 C 5.1961 -1.4999 0.0 0
M  V30 19 C 5.1961 1.4999 0.0 0
M  V30 20 C 3.4641 -0.5 0.0 0
M  V30 21 C 4.3301 -1.9999 0.0 0
M  V30 22 C 5.1961 2.5 0.0 0
M  V30 23 O 2.598 0.0 0.0 0
M  V30 24 C 3.4641 -1.4999 0.0 0
M  V30 25 O 6.0621 3.0 0.0 0
M  V30 26 O 4.3301 3.0 0.0 0
M  V30 27 C 1.732 -0.5 0.0 0
M  V30 28 C 0.866 0.0 0.0 0
M  V30 29 C 0.0 -0.5 0.0 0
M  V30 30 N -0.9135 -0.0932 0.0 0
M  V30 31 C -0.1045 -1.4945 0.0 0
M  V30 32 C -1.5826 -0.8364 0.0 0
M  V30 33 O -1.0826 -1.7024 0.0 0
M  V30 34 C 0.6386 -2.1636 0.0 0
M  V30 35 C -2.5771 -0.7318 0.0 0
M  V30 36 C -2.9839 0.1816 0.0 0
M  V30 37 C -3.1649 -1.5408 0.0 0
M  V30 38 C -3.9784 0.2861 0.0 0
M  V30 39 C -4.1595 -1.4363 0.0 0
M  V30 40 C -4.5662 -0.5228 0.0 0
M  V30 END ATOM
M  V30 BEGIN BOND
M  V30 1 2 1 2
M  V30 2 1 2 3
M  V30 3 1 2 4
M  V30 4 1 3 5
M  V30 5 1 4 6
M  V30 6 1 4 7
M  V30 7 2 5 8
M  V30 8 1 5 9
M  V30 9 1 6 10
M  V30 10 1 7 11
M  V30 11 1 8 12
M  V30 12 2 9 13
M  V30 13 1 10 14
M  V30 14 1 10 15
M  V30 15 2 12 16
M  V30 16 2 14 17
M  V30 17 1 14 18
M  V30 18 1 15 19
M  V30 19 1 17 20
M  V30 20 2 18 21
M  V30 21 1 19 22
M  V30 22 1 20 23
M  V30 23 2 20 24
M  V30 24 2 22 25
M  V30 25 1 22 26
M  V30 26 1 23 27
M  V30 27 1 27 28
M  V30 28 1 28 29
M  V30 29 1 29 30
M  V30 30 2 29 31
M  V30 31 2 30 32
M  V30 32 1 31 33
M  V30 33 1 31 34
M  V30 34 1 32 35
M  V30 35 2 35 36
M  V30 36 1 35 37
M  V30 37 1 36 38
M  V30 38 2 37 39
M  V30 39 2 38 40
M  V30 40 1 11 15
M  V30 41 1 13 16
M  V30 42 1 21 24
M  V30 43 1 32 33
M  V30 44 1 39 40
M  V30 END BOND
M  V30 END CTAB
M  END
>  <Molecule ChEMBL ID>
CHEMBL445942

>  <Smiles>
Cc1oc(-c2ccccc2)nc1CCOc1cccc(C2CN(C(=O)Oc3ccccc3)CCC2CC(=O)O)c1

>  <IC50_nM>
8120

>  <Assay Description>
Binding affinity at human PPARalpha by fluorescence polarization

$$$$
CHEMBL3398435
Actelion Java MolfileCreator 2.0

  0  0  0  0  0  0              0 V3000
M  V30 BEGIN CTAB
M  V30 COUNTS 39 43 0 0 0
M  V30 BEGIN ATOM
M  V30 1 O 9.2271 -3.0408 0.0 0
M  V30 2 C 8.6393 -2.2318 0.0 0
M  V30 3 O 9.0461 -1.3183 0.0 0
M  V30 4 N 7.6448 -2.3364 0.0 0
M  V30 5 C 8.4583 -0.5093 0.0 0
M  V30 6 C 6.9757 -1.5932 0.0 0
M  V30 7 C 7.1448 -3.2024 0.0 0
M  V30 8 C 8.865 0.4042 0.0 0
M  V30 9 C 7.4638 -0.6138 0.0 0
M  V30 10 C 6.0621 -2.0 0.0 0 CFG=2
M  V30 11 C 6.1667 -2.9945 0.0 0 CFG=1
M  V30 12 C 8.2772 1.2132 0.0 0
M  V30 13 C 6.876 0.1951 0.0 0
M  V30 14 C 5.1961 -1.4999 0.0 0
M  V30 15 C 5.4235 -3.6636 0.0 0
M  V30 16 C 7.2827 1.1087 0.0 0
M  V30 17 C 5.1961 -0.5 0.0 0
M  V30 18 C 4.3301 -1.9999 0.0 0
M  V30 19 C 5.6314 -4.6418 0.0 0
M  V30 20 C 4.3301 0.0 0.0 0
M  V30 21 C 3.4641 -1.5 0.0 0
M  V30 22 O 6.5825 -4.9508 0.0 0
M  V30 23 O 4.8883 -5.3109 0.0 0
M  V30 24 C 3.4641 -0.5 0.0 0
M  V30 25 O 2.598 0.0 0.0 0
M  V30 26 C 1.732 -0.5 0.0 0
M  V30 27 C 0.866 0.0 0.0 0
M  V30 28 C 0.0 -0.5 0.0 0
M  V30 29 N -0.9135 -0.0932 0.0 0
M  V30 30 C -0.1045 -1.4945 0.0 0
M  V30 31 C -1.5826 -0.8364 0.0 0
M  V30 32 O -1.0826 -1.7024 0.0 0
M  V30 33 C 0.6386 -2.1636 0.0 0
M  V30 34 C -2.5771 -0.7318 0.0 0
M  V30 35 C -2.9839 0.1816 0.0 0
M  V30 36 C -3.1649 -1.5408 0.0 0
M  V30 37 C -3.9784 0.2861 0.0 0
M  V30 38 C -4.1595 -1.4363 0.0 0
M  V30 39 C -4.5662 -0.5228 0.0 0
M  V30 END ATOM
M  V30 BEGIN BOND
M  V30 1 2 1 2
M  V30 2 1 2 3
M  V30 3 1 2 4
M  V30 4 1 3 5
M  V30 5 1 4 6
M  V30 6 1 4 7
M  V30 7 2 5 8
M  V30 8 1 5 9
M  V30 9 1 6 10
M  V30 10 1 7 11
M  V30 11 1 8 12
M  V30 12 2 9 13
M  V30 13 1 10 14 CFG=3
M  V30 14 1 11 15 CFG=3
M  V30 15 2 12 16
M  V30 16 2 14 17
M  V30 17 1 14 18
M  V30 18 1 15 19
M  V30 19 1 17 20
M  V30 20 2 18 21
M  V30 21 2 19 22
M  V30 22 1 19 23
M  V30 23 2 20 24
M  V30 24 1 24 25
M  V30 25 1 25 26
M  V30 26 1 26 27
M  V30 27 1 27 28
M  V30 28 1 28 29
M  V30 29 2 28 30
M  V30 30 2 29 31
M  V30 31 1 30 32
M  V30 32 1 30 33
M  V30 33 1 31 34
M  V30 34 2 34 35
M  V30 35 1 34 36
M  V30 36 1 35 37
M  V30 37 2 36 38
M  V30 38 2 37 39
M  V30 39 1 10 11
M  V30 40 1 13 16
M  V30 41 1 21 24
M  V30 42 1 31 32
M  V30 43 1 38 39
M  V30 END BOND
M  V30 BEGIN COLLECTION
M  V30 MDLV30/STEABS ATOMS=(2 10 11)
M  V30 END COLLECTION
M  V30 END CTAB
M  END
>  <Molecule ChEMBL ID>
CHEMBL3398435

>  <Smiles>
Cc1oc(-c2ccccc2)nc1CCOc1ccc([C@@H]2CN(C(=O)Oc3ccccc3)C[C@@H]2CC(=O)O)cc1

>  <IC50_nM>
8310

>  <Assay Description>
Binding affinity to PPARgamma (unknown origin) using fluorescein-tagged dual PPARalpha/gamma activator by homogeneous fluorescence polarization binding assay

$$$$
CHEMBL4436200
Actelion Java MolfileCreator 2.0

  0  0  0  0  0  0              0 V3000
M  V30 BEGIN CTAB
M  V30 COUNTS 42 46 0 0 0
M  V30 BEGIN ATOM
M  V30 1 F 5.1961 5.4999 0.0 0
M  V30 2 C 5.1961 4.4999 0.0 0
M  V30 3 C 4.3301 3.9999 0.0 0
M  V30 4 C 6.0621 3.9999 0.0 0
M  V30 5 C 4.3301 2.9999 0.0 0
M  V30 6 C 6.0621 2.9999 0.0 0
M  V30 7 C 5.1961 2.4999 0.0 0
M  V30 8 C 5.1961 1.4999 0.0 0
M  V30 9 O 4.3301 0.9999 0.0 0
M  V30 10 C 4.3301 0.0 0.0 0
M  V30 11 C 3.4641 -0.5 0.0 0
M  V30 12 C 5.1961 -0.5 0.0 0
M  V30 13 C 3.4641 -1.5 0.0 0
M  V30 14 C 2.598 0.0 0.0 0
M  V30 15 C 5.1961 -1.5 0.0 0
M  V30 16 C 4.3301 -2.0 0.0 0
M  V30 17 C 1.732 -0.5 0.0 0
M  V30 18 O 4.3301 -3.0 0.0 0
M  V30 19 C 0.866 0.0 0.0 0
M  V30 20 C 1.732 -1.5 0.0 0
M  V30 21 C 3.4641 -3.5 0.0 0
M  V30 22 O 0.0 -0.4999 0.0 0
M  V30 23 O 0.866 1.0 0.0 0
M  V30 24 C 0.866 -2.0 0.0 0
M  V30 25 C 3.4641 -4.5 0.0 0
M  V30 26 C 0.366 -2.866 0.0 0
M  V30 27 C -0.1339 -2.0 0.0 0
M  V30 28 C 2.598 -4.9999 0.0 0
M  V30 29 C 4.3301 -5.0 0.0 0
M  V30 30 C 2.598 -5.9999 0.0 0
M  V30 31 C 4.3301 -6.0 0.0 0
M  V30 32 C 1.732 -6.4999 0.0 0
M  V30 33 C 3.4641 -6.5 0.0 0
M  V30 34 O 0.866 -5.9999 0.0 0
M  V30 35 C 1.732 -7.4999 0.0 0
M  V30 36 N 3.4641 -7.5 0.0 0
M  V30 37 C 0.0 -6.4999 0.0 0
M  V30 38 C 2.598 -7.9999 0.0 0
M  V30 39 C 2.598 -9.0 0.0 0
M  V30 40 F 3.598 -9.0 0.0 0
M  V30 41 F 2.598 -10.0 0.0 0
M  V30 42 F 1.598 -9.0 0.0 0
M  V30 END ATOM
M  V30 BEGIN BOND
M  V30 1 1 1 2
M  V30 2 2 2 3
M  V30 3 1 2 4
M  V30 4 1 3 5
M  V30 5 2 4 6
M  V30 6 2 5 7
M  V30 7 1 7 8
M  V30 8 1 8 9
M  V30 9 1 9 10
M  V30 10 2 10 11
M  V30 11 1 10 12
M  V30 12 1 11 13
M  V30 13 1 11 14
M  V30 14 2 12 15
M  V30 15 2 13 16
M  V30 16 2 14 17
M  V30 17 1 16 18
M  V30 18 1 17 19
M  V30 19 1 17 20
M  V30 20 1 18 21
M  V30 21 2 19 22
M  V30 22 1 19 23
M  V30 23 1 20 24
M  V30 24 1 21 25
M  V30 25 1 24 26
M  V30 26 1 24 27
M  V30 27 2 25 28
M  V30 28 1 25 29
M  V30 29 1 28 30
M  V30 30 2 29 31
M  V30 31 2 30 32
M  V30 32 1 30 33
M  V30 33 1 32 34
M  V30 34 1 32 35
M  V30 35 2 33 36
M  V30 36 1 34 37
M  V30 37 2 35 38
M  V30 38 1 38 39
M  V30 39 1 39 40
M  V30 40 1 39 41
M  V30 41 1 39 42
M  V30 42 1 6 7
M  V30 43 1 15 16
M  V30 44 1 26 27
M  V30 45 1 31 33
M  V30 46 1 36 38
M  V30 END BOND
M  V30 END CTAB
M  END
>  <Molecule ChEMBL ID>
CHEMBL4436200

>  <Smiles>
COc1cc(C(F)(F)F)nc2ccc(COc3ccc(OCc4ccc(F)cc4)c(/C=C(\CC4CC4)C(=O)O)c3)cc12

>  <IC50_nM>
8400

>  <Assay Description>
Antagonist actvity in pFA-GAL4-DBD fused PPARgamma LBD (unknown origin) transfected in HEK293T cells assessed as inhibition of rosiglitazone-induced PPARgamma transactivation incubated for 24 hrs by luciferase reporter gene assay

$$$$
CHEMBL4288064
Actelion Java MolfileCreator 2.0

  0  0  0  0  0  0              0 V3000
M  V30 BEGIN CTAB
M  V30 COUNTS 26 28 0 0 0
M  V30 BEGIN ATOM
M  V30 1 S 5.2531 -3.5877 0.0 0
M  V30 2 C 5.5621 -4.5388 0.0 0
M  V30 3 C 6.0621 -3.0 0.0 0 CFG=2
M  V30 4 O 4.9743 -5.3478 0.0 0
M  V30 5 N 6.5621 -4.5388 0.0 0
M  V30 6 C 6.8711 -3.5877 0.0 0
M  V30 7 C 6.0621 -1.9999 0.0 0
M  V30 8 O 7.8222 -3.2787 0.0 0
M  V30 9 C 5.1961 -1.4999 0.0 0
M  V30 10 C 5.1961 -0.5 0.0 0
M  V30 11 C 4.3301 -1.9999 0.0 0
M  V30 12 C 4.3301 0.0 0.0 0
M  V30 13 C 3.4641 -1.5 0.0 0
M  V30 14 C 3.4641 -0.5 0.0 0
M  V30 15 O 2.598 0.0 0.0 0
M  V30 16 C 1.732 -0.5 0.0 0
M  V30 17 C 0.866 0.0 0.0 0
M  V30 18 O 0.866 1.0 0.0 0
M  V30 19 C 0.0 -0.5 0.0 0
M  V30 20 C -0.866 0.0 0.0 0
M  V30 21 C 0.0 -1.4999 0.0 0
M  V30 22 C -1.732 -0.4999 0.0 0
M  V30 23 C -0.866 -1.9999 0.0 0
M  V30 24 C -1.732 -1.4999 0.0 0
M  V30 25 C -2.598 -1.9999 0.0 0
M  V30 26 C -2.598 -2.9999 0.0 0
M  V30 END ATOM
M  V30 BEGIN BOND
M  V30 1 1 1 2
M  V30 2 1 1 3
M  V30 3 2 2 4
M  V30 4 1 2 5
M  V30 5 1 3 6
M  V30 6 1 3 7 CFG=1
M  V30 7 2 6 8
M  V30 8 1 7 9
M  V30 9 2 9 10
M  V30 10 1 9 11
M  V30 11 1 10 12
M  V30 12 2 11 13
M  V30 13 2 12 14
M  V30 14 1 14 15
M  V30 15 1 15 16
M  V30 16 1 16 17
M  V30 17 2 17 18
M  V30 18 1 17 19
M  V30 19 2 19 20
M  V30 20 1 19 21
M  V30 21 1 20 22
M  V30 22 2 21 23
M  V30 23 2 22 24
M  V30 24 1 24 25
M  V30 25 1 25 26
M  V30 26 1 5 6
M  V30 27 1 13 14
M  V30 28 1 23 24
M  V30 END BOND
M  V30 BEGIN COLLECTION
M  V30 MDLV30/STERAC1 ATOMS=(1 3)
M  V30 END COLLECTION
M  V30 END CTAB
M  END
>  <Molecule ChEMBL ID>
CHEMBL4288064

>  <Smiles>
CCc1ccc(C(=O)COc2ccc(CC3SC(=O)NC3=O)cc2)cc1

>  <IC50_nM>
8460

>  <Assay Description>
Competitive displacement of fluorescently labelled PPAR tracer ligand from GST-tagged human PPARgamma ligand binding domain after 1 hr in dark by TR-FRET competitive binding assay

$$$$
CHEMBL391085
Actelion Java MolfileCreator 2.0

  0  0  0  0  0  0              0 V3000
M  V30 BEGIN CTAB
M  V30 COUNTS 28 31 0 0 0
M  V30 BEGIN ATOM
M  V30 1 Cl 12.2382 -0.1225 0.0 0
M  V30 2 C 10.7464 0.0342 0.0 0
M  V30 3 C 10.1363 1.4045 0.0 0
M  V30 4 C 9.8647 -1.1792 0.0 0
M  V30 5 C 8.6445 1.5613 0.0 0
M  V30 6 C 8.373 -1.0224 0.0 0
M  V30 7 C 7.7629 0.3478 0.0 0
M  V30 8 C 6.2711 0.5046 0.0 0
M  V30 9 O 5.5211 1.8036 0.0 0
M  V30 10 C 5.2674 -0.6101 0.0 0
M  V30 11 N 4.0539 1.4917 0.0 0
M  V30 12 C 3.8971 0.0 0.0 0
M  V30 13 C 2.598 -0.75 0.0 0
M  V30 14 O 1.299 0.0 0.0 0
M  V30 15 C 0.0 -0.75 0.0 0
M  V30 16 C -1.299 0.0 0.0 0
M  V30 17 C 0.0 -2.2499 0.0 0
M  V30 18 C -2.598 -0.7499 0.0 0
M  V30 19 C -1.299 -2.9999 0.0 0
M  V30 20 C -2.598 -2.2499 0.0 0
M  V30 21 C -3.8971 0.0 0.0 0
M  V30 22 S -1.6109 -4.4672 0.0 0
M  V30 23 C -3.7127 -3.2536 0.0 0
M  V30 24 C -3.1026 -4.624 0.0 0
M  V30 25 C -5.18 -2.9418 0.0 0
M  V30 26 C -6.1837 -4.0565 0.0 0
M  V30 27 O -5.7201 -5.4831 0.0 0
M  V30 28 O -7.6509 -3.7446 0.0 0
M  V30 END ATOM
M  V30 BEGIN BOND
M  V30 1 1 1 2
M  V30 2 2 2 3
M  V30 3 1 2 4
M  V30 4 1 3 5
M  V30 5 2 4 6
M  V30 6 2 5 7
M  V30 7 1 7 8
M  V30 8 1 8 9
M  V30 9 2 8 10
M  V30 10 1 9 11
M  V30 11 1 10 12
M  V30 12 1 12 13
M  V30 13 1 13 14
M  V30 14 1 14 15
M  V30 15 2 15 16
M  V30 16 1 15 17
M  V30 17 1 16 18
M  V30 18 2 17 19
M  V30 19 2 18 20
M  V30 20 1 18 21
M  V30 21 1 19 22
M  V30 22 1 20 23
M  V30 23 1 22 24
M  V30 24 1 23 25
M  V30 25 1 25 26
M  V30 26 2 26 27
M  V30 27 1 26 28
M  V30 28 1 6 7
M  V30 29 2 11 12
M  V30 30 1 19 20
M  V30 31 2 23 24
M  V30 END BOND
M  V30 END CTAB
M  END
>  <Molecule ChEMBL ID>
CHEMBL391085

>  <Smiles>
Cc1cc(OCc2cc(-c3ccc(Cl)cc3)on2)cc2scc(CC(=O)O)c12

>  <IC50_nM>
8660

>  <Assay Description>
Displacement of [3H]5-(4-(3-(5-methyl-2-phenyloxazol-4-yl)propanoyl)benzyl)thiazolidine-2,4-dione from human PPARgamma after 2 hrs by SPA

$$$$
CHEMBL391085
Actelion Java MolfileCreator 2.0

  0  0  0  0  0  0              0 V3000
M  V30 BEGIN CTAB
M  V30 COUNTS 28 31 0 0 0
M  V30 BEGIN ATOM
M  V30 1 Cl 12.2382 -0.1225 0.0 0
M  V30 2 C 10.7464 0.0342 0.0 0
M  V30 3 C 10.1363 1.4045 0.0 0
M  V30 4 C 9.8647 -1.1792 0.0 0
M  V30 5 C 8.6445 1.5613 0.0 0
M  V30 6 C 8.373 -1.0224 0.0 0
M  V30 7 C 7.7629 0.3478 0.0 0
M  V30 8 C 6.2711 0.5046 0.0 0
M  V30 9 O 5.5211 1.8036 0.0 0
M  V30 10 C 5.2674 -0.6101 0.0 0
M  V30 11 N 4.0539 1.4917 0.0 0
M  V30 12 C 3.8971 0.0 0.0 0
M  V30 13 C 2.598 -0.75 0.0 0
M  V30 14 O 1.299 0.0 0.0 0
M  V30 15 C 0.0 -0.75 0.0 0
M  V30 16 C -1.299 0.0 0.0 0
M  V30 17 C 0.0 -2.2499 0.0 0
M  V30 18 C -2.598 -0.7499 0.0 0
M  V30 19 C -1.299 -2.9999 0.0 0
M  V30 20 C -2.598 -2.2499 0.0 0
M  V30 21 C -3.8971 0.0 0.0 0
M  V30 22 S -1.6109 -4.4672 0.0 0
M  V30 23 C -3.7127 -3.2536 0.0 0
M  V30 24 C -3.1026 -4.624 0.0 0
M  V30 25 C -5.18 -2.9418 0.0 0
M  V30 26 C -6.1837 -4.0565 0.0 0
M  V30 27 O -5.7201 -5.4831 0.0 0
M  V30 28 O -7.6509 -3.7446 0.0 0
M  V30 END ATOM
M  V30 BEGIN BOND
M  V30 1 1 1 2
M  V30 2 2 2 3
M  V30 3 1 2 4
M  V30 4 1 3 5
M  V30 5 2 4 6
M  V30 6 2 5 7
M  V30 7 1 7 8
M  V30 8 1 8 9
M  V30 9 2 8 10
M  V30 10 1 9 11
M  V30 11 1 10 12
M  V30 12 1 12 13
M  V30 13 1 13 14
M  V30 14 1 14 15
M  V30 15 2 15 16
M  V30 16 1 15 17
M  V30 17 1 16 18
M  V30 18 2 17 19
M  V30 19 2 18 20
M  V30 20 1 18 21
M  V30 21 1 19 22
M  V30 22 1 20 23
M  V30 23 1 22 24
M  V30 24 1 23 25
M  V30 25 1 25 26
M  V30 26 2 26 27
M  V30 27 1 26 28
M  V30 28 1 6 7
M  V30 29 2 11 12
M  V30 30 1 19 20
M  V30 31 2 23 24
M  V30 END BOND
M  V30 END CTAB
M  END
>  <Molecule ChEMBL ID>
CHEMBL391085

>  <Smiles>
Cc1cc(OCc2cc(-c3ccc(Cl)cc3)on2)cc2scc(CC(=O)O)c12

>  <IC50_nM>
8669.62

>  <Assay Description>
Agonist activity at PPARgamma

$$$$
CHEMBL39176
Actelion Java MolfileCreator 2.0

  0  0  0  0  0  0              0 V3000
M  V30 BEGIN CTAB
M  V30 COUNTS 24 25 0 0 0
M  V30 BEGIN ATOM
M  V30 1 O 5.1961 1.4999 0.0 0
M  V30 2 C 4.3301 0.9999 0.0 0
M  V30 3 O 3.4641 1.5 0.0 0
M  V30 4 C 4.3301 0.0 0.0 0 CFG=1
M  V30 5 N 3.4641 -0.5 0.0 0
M  V30 6 C 5.1961 -0.5 0.0 0
M  V30 7 C 2.598 0.0 0.0 0
M  V30 8 C 6.0621 0.0 0.0 0
M  V30 9 O 2.598 1.0 0.0 0
M  V30 10 C 1.732 -0.5 0.0 0 CFG=1
M  V30 11 C 6.9282 -0.5 0.0 0
M  V30 12 N 1.732 -1.5 0.0 0
M  V30 13 C 0.866 0.0 0.0 0
M  V30 14 O 7.7942 0.0 0.0 0
M  V30 15 O 6.9282 -1.4999 0.0 0
M  V30 16 C 0.0 -0.5 0.0 0
M  V30 17 C -0.9135 -0.0932 0.0 0
M  V30 18 C -0.1045 -1.4945 0.0 0
M  V30 19 C -1.5826 -0.8364 0.0 0
M  V30 20 C -1.2225 0.8577 0.0 0
M  V30 21 N -1.0826 -1.7024 0.0 0
M  V30 22 C -2.5608 -0.6284 0.0 0
M  V30 23 C -2.2007 1.0657 0.0 0
M  V30 24 C -2.8698 0.3225 0.0 0
M  V30 END ATOM
M  V30 BEGIN BOND
M  V30 1 2 1 2
M  V30 2 1 2 3
M  V30 3 1 2 4
M  V30 4 1 4 5 CFG=3
M  V30 5 1 4 6
M  V30 6 1 5 7
M  V30 7 1 6 8
M  V30 8 2 7 9
M  V30 9 1 7 10
M  V30 10 1 8 11
M  V30 11 1 10 12 CFG=1
M  V30 12 1 10 13
M  V30 13 2 11 14
M  V30 14 1 11 15
M  V30 15 1 13 16
M  V30 16 1 16 17
M  V30 17 2 16 18
M  V30 18 2 17 19
M  V30 19 1 17 20
M  V30 20 1 18 21
M  V30 21 1 19 22
M  V30 22 2 20 23
M  V30 23 2 22 24
M  V30 24 1 19 21
M  V30 25 1 23 24
M  V30 END BOND
M  V30 BEGIN COLLECTION
M  V30 MDLV30/STEABS ATOMS=(2 4 10)
M  V30 END COLLECTION
M  V30 END CTAB
M  END
>  <Molecule ChEMBL ID>
CHEMBL39176

>  <Smiles>
N[C@@H](Cc1c[nH]c2ccccc12)C(=O)N[C@@H](CCC(=O)O)C(=O)O

>  <IC50_nM>
8670

>  <Assay Description>
Antagonist activity at PPARgamma (unknown origin)

$$$$
CHEMBL39176
Actelion Java MolfileCreator 2.0

  0  0  0  0  0  0              0 V3000
M  V30 BEGIN CTAB
M  V30 COUNTS 24 25 0 0 0
M  V30 BEGIN ATOM
M  V30 1 O 5.1961 1.4999 0.0 0
M  V30 2 C 4.3301 0.9999 0.0 0
M  V30 3 O 3.4641 1.5 0.0 0
M  V30 4 C 4.3301 0.0 0.0 0 CFG=1
M  V30 5 N 3.4641 -0.5 0.0 0
M  V30 6 C 5.1961 -0.5 0.0 0
M  V30 7 C 2.598 0.0 0.0 0
M  V30 8 C 6.0621 0.0 0.0 0
M  V30 9 O 2.598 1.0 0.0 0
M  V30 10 C 1.732 -0.5 0.0 0 CFG=1
M  V30 11 C 6.9282 -0.5 0.0 0
M  V30 12 N 1.732 -1.5 0.0 0
M  V30 13 C 0.866 0.0 0.0 0
M  V30 14 O 7.7942 0.0 0.0 0
M  V30 15 O 6.9282 -1.4999 0.0 0
M  V30 16 C 0.0 -0.5 0.0 0
M  V30 17 C -0.9135 -0.0932 0.0 0
M  V30 18 C -0.1045 -1.4945 0.0 0
M  V30 19 C -1.5826 -0.8364 0.0 0
M  V30 20 C -1.2225 0.8577 0.0 0
M  V30 21 N -1.0826 -1.7024 0.0 0
M  V30 22 C -2.5608 -0.6284 0.0 0
M  V30 23 C -2.2007 1.0657 0.0 0
M  V30 24 C -2.8698 0.3225 0.0 0
M  V30 END ATOM
M  V30 BEGIN BOND
M  V30 1 2 1 2
M  V30 2 1 2 3
M  V30 3 1 2 4
M  V30 4 1 4 5 CFG=3
M  V30 5 1 4 6
M  V30 6 1 5 7
M  V30 7 1 6 8
M  V30 8 2 7 9
M  V30 9 1 7 10
M  V30 10 1 8 11
M  V30 11 1 10 12 CFG=1
M  V30 12 1 10 13
M  V30 13 2 11 14
M  V30 14 1 11 15
M  V30 15 1 13 16
M  V30 16 1 16 17
M  V30 17 2 16 18
M  V30 18 2 17 19
M  V30 19 1 17 20
M  V30 20 1 18 21
M  V30 21 1 19 22
M  V30 22 2 20 23
M  V30 23 2 22 24
M  V30 24 1 19 21
M  V30 25 1 23 24
M  V30 END BOND
M  V30 BEGIN COLLECTION
M  V30 MDLV30/STEABS ATOMS=(2 4 10)
M  V30 END COLLECTION
M  V30 END CTAB
M  END
>  <Molecule ChEMBL ID>
CHEMBL39176

>  <Smiles>
N[C@@H](Cc1c[nH]c2ccccc12)C(=O)N[C@@H](CCC(=O)O)C(=O)O

>  <IC50_nM>
8670

>  <Assay Description>
Antagonist activity at human PPARgamma receptor expressed in Saccharomyces cerevisiae AH109 co-transfected with mouse CBP assessed as inhibition of rosiglitazone-induced LBD-CBP interaction by alpha-galactosidase based yeast two hybrid assay

$$$$
CHEMBL4874261
Actelion Java MolfileCreator 2.0

  0  0  0  0  0  0              0 V3000
M  V30 BEGIN CTAB
M  V30 COUNTS 36 39 0 0 0
M  V30 BEGIN ATOM
M  V30 1 Cl 9.0932 0.0 0.0 0
M  V30 2 C 7.7942 -0.75 0.0 0
M  V30 3 C 6.4951 0.0 0.0 0
M  V30 4 C 7.7942 -2.25 0.0 0
M  V30 5 C 5.1961 -0.75 0.0 0
M  V30 6 C 6.4951 -3.0 0.0 0
M  V30 7 N 3.8971 0.0 0.0 0
M  V30 8 C 5.1961 -2.25 0.0 0
M  V30 9 C 2.598 -0.75 0.0 0
M  V30 10 O 3.8971 -3.0 0.0 0
M  V30 11 O 2.598 -2.25 0.0 0
M  V30 12 O 1.299 0.0 0.0 0
M  V30 13 C 3.8971 -4.5 0.0 0
M  V30 14 C 0.0 -0.75 0.0 0
M  V30 15 C -1.299 0.0 0.0 0
M  V30 16 C 0.0 -2.25 0.0 0
M  V30 17 C -1.299 1.5 0.0 0
M  V30 18 C -2.598 -0.7499 0.0 0
M  V30 19 C -1.299 -2.9999 0.0 0
M  V30 20 O -2.598 2.25 0.0 0
M  V30 21 N 0.0 2.25 0.0 0
M  V30 22 C -2.598 -2.2499 0.0 0
M  V30 23 C -1.299 -4.4999 0.0 0
M  V30 24 C 0.0 3.75 0.0 0
M  V30 25 C -3.8971 -2.9999 0.0 0
M  V30 26 C -2.598 -5.2499 0.0 0
M  V30 27 C 1.299 4.4999 0.0 0
M  V30 28 C -1.299 4.5 0.0 0
M  V30 29 C -3.8971 -4.4999 0.0 0
M  V30 30 O 2.598 3.7499 0.0 0
M  V30 31 C 1.299 5.9999 0.0 0
M  V30 32 C -1.299 6.0 0.0 0
M  V30 33 C 3.8971 4.4999 0.0 0
M  V30 34 C 0.0 6.75 0.0 0
M  V30 35 O -2.598 6.75 0.0 0
M  V30 36 C -3.8971 6.0 0.0 0
M  V30 END ATOM
M  V30 BEGIN BOND
M  V30 1 1 1 2
M  V30 2 2 2 3
M  V30 3 1 2 4
M  V30 4 1 3 5
M  V30 5 2 4 6
M  V30 6 1 5 7
M  V30 7 2 5 8
M  V30 8 1 7 9
M  V30 9 1 8 10
M  V30 10 2 9 11
M  V30 11 1 9 12
M  V30 12 1 10 13
M  V30 13 1 12 14
M  V30 14 1 14 15
M  V30 15 2 14 16
M  V30 16 1 15 17
M  V30 17 2 15 18
M  V30 18 1 16 19
M  V30 19 2 17 20
M  V30 20 1 17 21
M  V30 21 1 18 22
M  V30 22 2 19 23
M  V30 23 1 21 24
M  V30 24 2 22 25
M  V30 25 1 23 26
M  V30 26 2 24 27
M  V30 27 1 24 28
M  V30 28 1 25 29
M  V30 29 1 27 30
M  V30 30 1 27 31
M  V30 31 2 28 32
M  V30 32 1 30 33
M  V30 33 2 31 34
M  V30 34 1 32 35
M  V30 35 1 35 36
M  V30 36 1 6 8
M  V30 37 1 19 22
M  V30 38 2 26 29
M  V30 39 1 32 34
M  V30 END BOND
M  V30 END CTAB
M  END
>  <Molecule ChEMBL ID>
CHEMBL4874261

>  <Smiles>
COc1ccc(OC)c(NC(=O)c2cc3ccccc3cc2OC(=O)Nc2cc(Cl)ccc2OC)c1

>  <IC50_nM>
8700

>  <Assay Description>
Antagonist activity at PPARgamma (unknown origin) expressed in human LNCaP cells assessed as suppression of pioglitazone-induced PPAR response element driven firefly luciferase activity measured after 24 hrs by dual luciferase reporter assay

$$$$
CHEMBL3596278
Actelion Java MolfileCreator 2.0

  0  0  0  0  0  0              0 V3000
M  V30 BEGIN CTAB
M  V30 COUNTS 33 36 0 0 0
M  V30 BEGIN ATOM
M  V30 1 F 2.598 -3.0 0.0 0
M  V30 2 C 2.598 -1.9999 0.0 0
M  V30 3 C 3.4641 -1.5 0.0 0
M  V30 4 C 1.732 -1.5 0.0 0
M  V30 5 C 4.3301 -2.0 0.0 0
M  V30 6 C 3.4641 -0.5 0.0 0
M  V30 7 C 1.732 -0.5 0.0 0
M  V30 8 N 4.4346 -2.9945 0.0 0
M  V30 9 C 5.2436 -1.5932 0.0 0
M  V30 10 C 2.598 0.0 0.0 0
M  V30 11 C 0.866 0.0 0.0 0
M  V30 12 C 5.4128 -3.2024 0.0 0
M  V30 13 N 5.9128 -2.3364 0.0 0
M  V30 14 C 5.5526 -0.6422 0.0 0
M  V30 15 O 0.866 1.0 0.0 0
M  V30 16 O 0.0 -0.5 0.0 0
M  V30 17 C 5.8195 -4.1159 0.0 0
M  V30 18 C 6.8909 -2.1284 0.0 0
M  V30 19 C 6.5308 -0.4342 0.0 0
M  V30 20 O 6.814 -4.2205 0.0 0
M  V30 21 C 5.2317 -4.9249 0.0 0
M  V30 22 C 7.1999 -1.1774 0.0 0
M  V30 23 C 4.2372 -4.8204 0.0 0
M  V30 24 C 5.6384 -5.8385 0.0 0
M  V30 25 O 3.8304 -3.9069 0.0 0
M  V30 26 C 3.6494 -5.6294 0.0 0
M  V30 27 C 5.0507 -6.6475 0.0 0
M  V30 28 C 6.633 -5.943 0.0 0
M  V30 29 C 2.8359 -3.8023 0.0 0
M  V30 30 C 4.0561 -6.543 0.0 0
M  V30 31 F 6.7375 -4.9485 0.0 0
M  V30 32 F 7.6275 -6.0475 0.0 0
M  V30 33 F 6.5284 -6.9375 0.0 0
M  V30 END ATOM
M  V30 BEGIN BOND
M  V30 1 1 1 2
M  V30 2 2 2 3
M  V30 3 1 2 4
M  V30 4 1 3 5
M  V30 5 1 3 6
M  V30 6 2 4 7
M  V30 7 1 5 8
M  V30 8 2 5 9
M  V30 9 2 6 10
M  V30 10 1 7 11
M  V30 11 2 8 12
M  V30 12 1 9 13
M  V30 13 1 9 14
M  V30 14 2 11 15
M  V30 15 1 11 16
M  V30 16 1 12 17
M  V30 17 1 13 18
M  V30 18 1 14 19
M  V30 19 2 17 20
M  V30 20 1 17 21
M  V30 21 1 18 22
M  V30 22 2 21 23
M  V30 23 1 21 24
M  V30 24 1 23 25
M  V30 25 1 23 26
M  V30 26 2 24 27
M  V30 27 1 24 28
M  V30 28 1 25 29
M  V30 29 2 26 30
M  V30 30 1 28 31
M  V30 31 1 28 32
M  V30 32 1 28 33
M  V30 33 1 7 10
M  V30 34 1 12 13
M  V30 35 1 19 22
M  V30 36 1 27 30
M  V30 END BOND
M  V30 END CTAB
M  END
>  <Molecule ChEMBL ID>
CHEMBL3596278

>  <Smiles>
COc1cccc(C(F)(F)F)c1C(=O)c1nc(-c2ccc(C(=O)O)cc2F)c2n1CCCC2

>  <IC50_nM>
9100

>  <Assay Description>
Displacement of fluormone PPARgamma green from GST-tagged human PPARgamma-LBD after 2 hrs by fluorescence polarization assay

$$$$
CHEMBL391478
Actelion Java MolfileCreator 2.0

  0  0  0  0  0  0              0 V3000
M  V30 BEGIN CTAB
M  V30 COUNTS 33 35 0 0 0
M  V30 BEGIN ATOM
M  V30 1 Cl 4.3301 -2.9999 0.0 0
M  V30 2 C 4.3301 -1.9999 0.0 0
M  V30 3 C 5.1961 -1.5 0.0 0
M  V30 4 C 3.4641 -1.5 0.0 0
M  V30 5 S 6.0621 -2.0 0.0 0
M  V30 6 C 5.1961 -0.5 0.0 0
M  V30 7 C 3.4641 -0.5 0.0 0
M  V30 8 C 6.0621 -3.0 0.0 0
M  V30 9 C 4.3301 0.0 0.0 0
M  V30 10 O 2.598 0.0 0.0 0
M  V30 11 C 6.9282 -3.5 0.0 0
M  V30 12 C 4.3301 1.0 0.0 0
M  V30 13 C 1.732 -0.5 0.0 0
M  V30 14 C 6.9282 -4.5 0.0 0
M  V30 15 C 7.7942 -3.0 0.0 0
M  V30 16 C 0.866 0.0 0.0 0
M  V30 17 C 7.7942 -5.0 0.0 0
M  V30 18 C 8.6602 -3.5 0.0 0
M  V30 19 O 0.866 1.0 0.0 0
M  V30 20 O 0.0 -0.5 0.0 0
M  V30 21 C 8.6602 -4.5 0.0 0
M  V30 22 O 9.5262 -5.0 0.0 0
M  V30 23 C 9.5262 -6.0 0.0 0
M  V30 24 C 10.3923 -6.5 0.0 0
M  V30 25 C 10.3923 -7.5 0.0 0
M  V30 26 C 11.2583 -6.0 0.0 0
M  V30 27 C 11.2583 -8.0 0.0 0
M  V30 28 C 12.1243 -6.5 0.0 0
M  V30 29 C 12.1243 -7.5 0.0 0
M  V30 30 C 12.9903 -8.0 0.0 0
M  V30 31 F 13.4903 -7.1339 0.0 0
M  V30 32 F 13.8564 -8.5 0.0 0
M  V30 33 F 12.4903 -8.866 0.0 0
M  V30 END ATOM
M  V30 BEGIN BOND
M  V30 1 1 1 2
M  V30 2 2 2 3
M  V30 3 1 2 4
M  V30 4 1 3 5
M  V30 5 1 3 6
M  V30 6 2 4 7
M  V30 7 1 5 8
M  V30 8 2 6 9
M  V30 9 1 7 10
M  V30 10 1 8 11
M  V30 11 1 9 12
M  V30 12 1 10 13
M  V30 13 2 11 14
M  V30 14 1 11 15
M  V30 15 1 13 16
M  V30 16 1 14 17
M  V30 17 2 15 18
M  V30 18 2 16 19
M  V30 19 1 16 20
M  V30 20 2 17 21
M  V30 21 1 21 22
M  V30 22 1 22 23
M  V30 23 1 23 24
M  V30 24 2 24 25
M  V30 25 1 24 26
M  V30 26 1 25 27
M  V30 27 2 26 28
M  V30 28 2 27 29
M  V30 29 1 29 30
M  V30 30 1 30 31
M  V30 31 1 30 32
M  V30 32 1 30 33
M  V30 33 1 7 9
M  V30 34 1 18 21
M  V30 35 1 28 29
M  V30 END BOND
M  V30 END CTAB
M  END
>  <Molecule ChEMBL ID>
CHEMBL391478

>  <Smiles>
Cc1cc(SCc2ccc(OCc3ccc(C(F)(F)F)cc3)cc2)c(Cl)cc1OCC(=O)O

>  <IC50_nM>
9120

>  <Assay Description>
Displacement of [3H]5-(4-(3-(5-methyl-2-phenyloxazol-4-yl)propanoyl)benzyl)thiazolidine-2,4-dione from human PPARgamma after 2 hrs by SPA assay

$$$$
CHEMBL391478
Actelion Java MolfileCreator 2.0

  0  0  0  0  0  0              0 V3000
M  V30 BEGIN CTAB
M  V30 COUNTS 33 35 0 0 0
M  V30 BEGIN ATOM
M  V30 1 Cl 4.3301 -2.9999 0.0 0
M  V30 2 C 4.3301 -1.9999 0.0 0
M  V30 3 C 5.1961 -1.5 0.0 0
M  V30 4 C 3.4641 -1.5 0.0 0
M  V30 5 S 6.0621 -2.0 0.0 0
M  V30 6 C 5.1961 -0.5 0.0 0
M  V30 7 C 3.4641 -0.5 0.0 0
M  V30 8 C 6.0621 -3.0 0.0 0
M  V30 9 C 4.3301 0.0 0.0 0
M  V30 10 O 2.598 0.0 0.0 0
M  V30 11 C 6.9282 -3.5 0.0 0
M  V30 12 C 4.3301 1.0 0.0 0
M  V30 13 C 1.732 -0.5 0.0 0
M  V30 14 C 6.9282 -4.5 0.0 0
M  V30 15 C 7.7942 -3.0 0.0 0
M  V30 16 C 0.866 0.0 0.0 0
M  V30 17 C 7.7942 -5.0 0.0 0
M  V30 18 C 8.6602 -3.5 0.0 0
M  V30 19 O 0.866 1.0 0.0 0
M  V30 20 O 0.0 -0.5 0.0 0
M  V30 21 C 8.6602 -4.5 0.0 0
M  V30 22 O 9.5262 -5.0 0.0 0
M  V30 23 C 9.5262 -6.0 0.0 0
M  V30 24 C 10.3923 -6.5 0.0 0
M  V30 25 C 10.3923 -7.5 0.0 0
M  V30 26 C 11.2583 -6.0 0.0 0
M  V30 27 C 11.2583 -8.0 0.0 0
M  V30 28 C 12.1243 -6.5 0.0 0
M  V30 29 C 12.1243 -7.5 0.0 0
M  V30 30 C 12.9903 -8.0 0.0 0
M  V30 31 F 13.4903 -7.1339 0.0 0
M  V30 32 F 13.8564 -8.5 0.0 0
M  V30 33 F 12.4903 -8.866 0.0 0
M  V30 END ATOM
M  V30 BEGIN BOND
M  V30 1 1 1 2
M  V30 2 2 2 3
M  V30 3 1 2 4
M  V30 4 1 3 5
M  V30 5 1 3 6
M  V30 6 2 4 7
M  V30 7 1 5 8
M  V30 8 2 6 9
M  V30 9 1 7 10
M  V30 10 1 8 11
M  V30 11 1 9 12
M  V30 12 1 10 13
M  V30 13 2 11 14
M  V30 14 1 11 15
M  V30 15 1 13 16
M  V30 16 1 14 17
M  V30 17 2 15 18
M  V30 18 2 16 19
M  V30 19 1 16 20
M  V30 20 2 17 21
M  V30 21 1 21 22
M  V30 22 1 22 23
M  V30 23 1 23 24
M  V30 24 2 24 25
M  V30 25 1 24 26
M  V30 26 1 25 27
M  V30 27 2 26 28
M  V30 28 2 27 29
M  V30 29 1 29 30
M  V30 30 1 30 31
M  V30 31 1 30 32
M  V30 32 1 30 33
M  V30 33 1 7 9
M  V30 34 1 18 21
M  V30 35 1 28 29
M  V30 END BOND
M  V30 END CTAB
M  END
>  <Molecule ChEMBL ID>
CHEMBL391478

>  <Smiles>
Cc1cc(SCc2ccc(OCc3ccc(C(F)(F)F)cc3)cc2)c(Cl)cc1OCC(=O)O

>  <IC50_nM>
9120.11

>  <Assay Description>
Agonist activity at PPARgamma

$$$$
CHEMBL5172001
Actelion Java MolfileCreator 2.0

  0  0  0  0  0  0              0 V3000
M  V30 BEGIN CTAB
M  V30 COUNTS 28 31 0 0 0
M  V30 BEGIN ATOM
M  V30 1 S 3.5116 -0.4067 0.0 0
M  V30 2 C 4.1807 0.3364 0.0 0
M  V30 3 C 2.598 0.0 0.0 0
M  V30 4 N 5.1752 0.2318 0.0 0 CHG=1
M  V30 5 C 3.6807 1.2024 0.0 0
M  V30 6 C 1.732 -0.5 0.0 0
M  V30 7 C 2.7026 0.9945 0.0 0
M  V30 8 O 5.582 -0.6816 0.0 0
M  V30 9 O 5.763 1.0408 0.0 0 CHG=-1
M  V30 10 O 1.732 -1.5 0.0 0
M  V30 11 N 0.866 0.0 0.0 0
M  V30 12 C 0.0 -0.5 0.0 0
M  V30 13 C -0.866 0.0 0.0 0
M  V30 14 C 0.0 -1.5 0.0 0
M  V30 15 C -1.732 -0.4999 0.0 0
M  V30 16 C -0.866 -1.9999 0.0 0
M  V30 17 N -2.6831 -0.1909 0.0 0
M  V30 18 C -1.732 -1.4999 0.0 0
M  V30 19 C -3.2708 -0.9999 0.0 0
M  V30 20 O -2.6831 -1.809 0.0 0
M  V30 21 C -4.2708 -0.9999 0.0 0
M  V30 22 C -4.7708 -0.1339 0.0 0
M  V30 23 C -4.7708 -1.866 0.0 0
M  V30 24 C -5.7708 -0.1339 0.0 0
M  V30 25 C -5.7708 -1.866 0.0 0
M  V30 26 C -6.2708 -0.9999 0.0 0
M  V30 27 C -7.2708 -0.9999 0.0 0
M  V30 28 C -7.7708 -1.866 0.0 0
M  V30 END ATOM
M  V30 BEGIN BOND
M  V30 1 1 1 2
M  V30 2 1 1 3
M  V30 3 1 2 4
M  V30 4 2 2 5
M  V30 5 1 3 6
M  V30 6 2 3 7
M  V30 7 2 4 8
M  V30 8 1 4 9
M  V30 9 2 6 10
M  V30 10 1 6 11
M  V30 11 1 11 12
M  V30 12 2 12 13
M  V30 13 1 12 14
M  V30 14 1 13 15
M  V30 15 2 14 16
M  V30 16 1 15 17
M  V30 17 2 15 18
M  V30 18 2 17 19
M  V30 19 1 18 20
M  V30 20 1 19 21
M  V30 21 2 21 22
M  V30 22 1 21 23
M  V30 23 1 22 24
M  V30 24 2 23 25
M  V30 25 2 24 26
M  V30 26 1 26 27
M  V30 27 1 27 28
M  V30 28 1 5 7
M  V30 29 1 16 18
M  V30 30 1 19 20
M  V30 31 1 25 26
M  V30 END BOND
M  V30 END CTAB
M  END
>  <Molecule ChEMBL ID>
CHEMBL5172001

>  <Smiles>
CCc1ccc(-c2nc3cc(NC(=O)c4ccc([N+](=O)[O-])s4)ccc3o2)cc1

>  <IC50_nM>
9350

>  <Assay Description>
Inverse agonist activity at PPARgamma in human RT112/84-FABP4 cells assessed as reduction in PPARgamma transactivation measured by Nanoluciferase reporter gene assay

$$$$
CHEMBL4558793
Actelion Java MolfileCreator 2.0

  0  0  0  0  0  0              0 V3000
M  V30 BEGIN CTAB
M  V30 COUNTS 39 42 0 0 0
M  V30 BEGIN ATOM
M  V30 1 F 5.1961 5.4999 0.0 0
M  V30 2 C 5.1961 4.4999 0.0 0
M  V30 3 C 4.3301 3.9999 0.0 0
M  V30 4 C 6.0621 3.9999 0.0 0
M  V30 5 C 4.3301 2.9999 0.0 0
M  V30 6 C 6.0621 2.9999 0.0 0
M  V30 7 C 5.1961 2.4999 0.0 0
M  V30 8 C 5.1961 1.4999 0.0 0
M  V30 9 O 4.3301 0.9999 0.0 0
M  V30 10 C 4.3301 0.0 0.0 0
M  V30 11 C 3.4641 -0.5 0.0 0
M  V30 12 C 5.1961 -0.5 0.0 0
M  V30 13 C 3.4641 -1.5 0.0 0
M  V30 14 C 2.598 0.0 0.0 0
M  V30 15 C 5.1961 -1.5 0.0 0
M  V30 16 C 4.3301 -2.0 0.0 0
M  V30 17 C 1.732 -0.5 0.0 0
M  V30 18 O 4.3301 -3.0 0.0 0
M  V30 19 C 0.866 0.0 0.0 0
M  V30 20 C 1.732 -1.5 0.0 0
M  V30 21 C 3.4641 -3.5 0.0 0
M  V30 22 O 0.866 1.0 0.0 0
M  V30 23 O 0.0 -0.5 0.0 0
M  V30 24 C 3.4641 -4.5 0.0 0
M  V30 25 C 2.598 -4.9999 0.0 0
M  V30 26 C 4.3301 -5.0 0.0 0
M  V30 27 C 2.598 -5.9999 0.0 0
M  V30 28 C 4.3301 -6.0 0.0 0
M  V30 29 C 1.732 -6.4999 0.0 0
M  V30 30 C 3.4641 -6.5 0.0 0
M  V30 31 O 0.866 -5.9999 0.0 0
M  V30 32 C 1.732 -7.4999 0.0 0
M  V30 33 N 3.4641 -7.5 0.0 0
M  V30 34 C 0.0 -6.4999 0.0 0
M  V30 35 C 2.598 -7.9999 0.0 0
M  V30 36 C 2.598 -9.0 0.0 0
M  V30 37 F 3.598 -9.0 0.0 0
M  V30 38 F 2.598 -10.0 0.0 0
M  V30 39 F 1.598 -9.0 0.0 0
M  V30 END ATOM
M  V30 BEGIN BOND
M  V30 1 1 1 2
M  V30 2 2 2 3
M  V30 3 1 2 4
M  V30 4 1 3 5
M  V30 5 2 4 6
M  V30 6 2 5 7
M  V30 7 1 7 8
M  V30 8 1 8 9
M  V30 9 1 9 10
M  V30 10 2 10 11
M  V30 11 1 10 12
M  V30 12 1 11 13
M  V30 13 1 11 14
M  V30 14 2 12 15
M  V30 15 2 13 16
M  V30 16 2 14 17
M  V30 17 1 16 18
M  V30 18 1 17 19
M  V30 19 1 17 20
M  V30 20 1 18 21
M  V30 21 2 19 22
M  V30 22 1 19 23
M  V30 23 1 21 24
M  V30 24 2 24 25
M  V30 25 1 24 26
M  V30 26 1 25 27
M  V30 27 2 26 28
M  V30 28 2 27 29
M  V30 29 1 27 30
M  V30 30 1 29 31
M  V30 31 1 29 32
M  V30 32 2 30 33
M  V30 33 1 31 34
M  V30 34 2 32 35
M  V30 35 1 35 36
M  V30 36 1 36 37
M  V30 37 1 36 38
M  V30 38 1 36 39
M  V30 39 1 6 7
M  V30 40 1 15 16
M  V30 41 1 28 30
M  V30 42 1 33 35
M  V30 END BOND
M  V30 END CTAB
M  END
>  <Molecule ChEMBL ID>
CHEMBL4558793

>  <Smiles>
COc1cc(C(F)(F)F)nc2ccc(COc3ccc(OCc4ccc(F)cc4)c(/C=C(\C)C(=O)O)c3)cc12

>  <IC50_nM>
9400

>  <Assay Description>
Antagonist actvity in pFA-GAL4-DBD fused PPARgamma LBD (unknown origin) transfected in HEK293T cells assessed as inhibition of rosiglitazone-induced PPARgamma transactivation incubated for 24 hrs by luciferase reporter gene assay

$$$$
CHEMBL435317
Actelion Java MolfileCreator 2.0

  0  0  0  0  0  0              0 V3000
M  V30 BEGIN CTAB
M  V30 COUNTS 37 40 0 0 0
M  V30 BEGIN ATOM
M  V30 1 S 3.8971 0.0 0.0 0
M  V30 2 O 4.6471 1.299 0.0 0
M  V30 3 O 3.1471 1.299 0.0 0
M  V30 4 N 2.598 -0.75 0.0 0
M  V30 5 C 5.1961 -0.75 0.0 0
M  V30 6 C 1.299 0.0 0.0 0
M  V30 7 C 5.1961 -2.25 0.0 0
M  V30 8 C 6.4951 0.0 0.0 0
M  V30 9 O 1.299 1.5 0.0 0
M  V30 10 C 0.0 -0.75 0.0 0
M  V30 11 C 6.4951 -3.0 0.0 0
M  V30 12 C 7.7942 -0.75 0.0 0
M  V30 13 N -1.3703 -0.1398 0.0 0
M  V30 14 C -0.1567 -2.2417 0.0 0
M  V30 15 C 7.7942 -2.25 0.0 0
M  V30 16 C 6.4951 -4.5 0.0 0
M  V30 17 C -2.374 -1.2546 0.0 0
M  V30 18 C -1.6821 1.3273 0.0 0
M  V30 19 C -1.624 -2.5536 0.0 0
M  V30 20 F 7.9951 -4.5 0.0 0
M  V30 21 F 6.4951 -6.0 0.0 0
M  V30 22 F 4.9951 -4.5 0.0 0
M  V30 23 C -3.874 -1.2546 0.0 0
M  V30 24 O -0.5674 2.331 0.0 0
M  V30 25 C -3.1087 1.7908 0.0 0
M  V30 26 C -2.374 -3.8526 0.0 0
M  V30 27 C -4.624 -2.5536 0.0 0
M  V30 28 C -3.4206 3.258 0.0 0
M  V30 29 C -4.2234 0.7871 0.0 0
M  V30 30 C -3.874 -3.8526 0.0 0
M  V30 31 C -4.8472 3.7216 0.0 0
M  V30 32 C -5.65 1.2506 0.0 0
M  V30 33 C -5.9619 2.7179 0.0 0
M  V30 34 C -5.159 5.1888 0.0 0
M  V30 35 F -6.6263 4.8769 0.0 0
M  V30 36 F -5.4709 6.656 0.0 0
M  V30 37 F -3.6918 5.5006 0.0 0
M  V30 END ATOM
M  V30 BEGIN BOND
M  V30 1 2 1 2
M  V30 2 2 1 3
M  V30 3 1 1 4
M  V30 4 1 1 5
M  V30 5 1 4 6
M  V30 6 2 5 7
M  V30 7 1 5 8
M  V30 8 2 6 9
M  V30 9 1 6 10
M  V30 10 1 7 11
M  V30 11 2 8 12
M  V30 12 1 10 13
M  V30 13 2 10 14
M  V30 14 2 11 15
M  V30 15 1 11 16
M  V30 16 1 13 17
M  V30 17 1 13 18
M  V30 18 1 14 19
M  V30 19 1 16 20
M  V30 20 1 16 21
M  V30 21 1 16 22
M  V30 22 1 17 23
M  V30 23 2 18 24
M  V30 24 1 18 25
M  V30 25 1 19 26
M  V30 26 2 23 27
M  V30 27 2 25 28
M  V30 28 1 25 29
M  V30 29 2 26 30
M  V30 30 1 28 31
M  V30 31 2 29 32
M  V30 32 2 31 33
M  V30 33 1 31 34
M  V30 34 1 34 35
M  V30 35 1 34 36
M  V30 36 1 34 37
M  V30 37 1 12 15
M  V30 38 2 17 19
M  V30 39 1 27 30
M  V30 40 1 32 33
M  V30 END BOND
M  V30 END CTAB
M  END
>  <Molecule ChEMBL ID>
CHEMBL435317

>  <Smiles>
O=C(NS(=O)(=O)c1cccc(C(F)(F)F)c1)c1cc2ccccc2n1C(=O)c1cccc(C(F)(F)F)c1

>  <IC50_nM>
9400

>  <Assay Description>
Displacement of Fluormone from PPAR gamma

$$$$
CHEMBL1092236
Actelion Java MolfileCreator 2.0

  0  0  0  0  0  0              0 V3000
M  V30 BEGIN CTAB
M  V30 COUNTS 35 38 0 0 0
M  V30 BEGIN ATOM
M  V30 1 Cl 8.0472 10.2749 0.0 0
M  V30 2 C 7.4595 9.4658 0.0 0
M  V30 3 C 6.4649 9.5704 0.0 0
M  V30 4 C 7.8662 8.5523 0.0 0
M  V30 5 C 5.8772 8.7614 0.0 0
M  V30 6 C 7.2784 7.7433 0.0 0
M  V30 7 C 6.2839 7.8478 0.0 0
M  V30 8 C 5.6961 7.0388 0.0 0
M  V30 9 O 4.6961 7.0388 0.0 0
M  V30 10 N 6.0051 6.0877 0.0 0
M  V30 11 C 4.3871 6.0877 0.0 0
M  V30 12 C 5.1961 5.5 0.0 0
M  V30 13 C 3.436 5.7787 0.0 0
M  V30 14 C 5.1961 4.5 0.0 0
M  V30 15 O 4.3301 4.0 0.0 0
M  V30 16 C 4.3301 3.0 0.0 0
M  V30 17 C 3.4641 2.5 0.0 0
M  V30 18 C 5.1961 2.5 0.0 0
M  V30 19 C 3.4641 1.5 0.0 0
M  V30 20 C 5.1961 1.5 0.0 0
M  V30 21 C 4.3301 1.0 0.0 0
M  V30 22 C 2.598 1.0 0.0 0
M  V30 23 N 2.598 0.0 0.0 0
M  V30 24 C 3.4641 -0.5 0.0 0
M  V30 25 C 1.732 -0.5 0.0 0
M  V30 26 O 3.4641 -1.5 0.0 0
M  V30 27 O 4.3301 0.0 0.0 0
M  V30 28 C 0.866 0.0 0.0 0
M  V30 29 C 5.1961 -0.5 0.0 0
M  V30 30 O 0.866 1.0 0.0 0
M  V30 31 O 0.0 -0.5 0.0 0
M  V30 32 C 5.3006 -1.4945 0.0 0
M  V30 33 C 6.1096 -0.0932 0.0 0
M  V30 34 C 6.2788 -1.7024 0.0 0
M  V30 35 C 6.7788 -0.8364 0.0 0
M  V30 END ATOM
M  V30 BEGIN BOND
M  V30 1 1 1 2
M  V30 2 2 2 3
M  V30 3 1 2 4
M  V30 4 1 3 5
M  V30 5 2 4 6
M  V30 6 2 5 7
M  V30 7 1 7 8
M  V30 8 1 8 9
M  V30 9 2 8 10
M  V30 10 1 9 11
M  V30 11 1 10 12
M  V30 12 1 11 13
M  V30 13 1 12 14
M  V30 14 1 14 15
M  V30 15 1 15 16
M  V30 16 2 16 17
M  V30 17 1 16 18
M  V30 18 1 17 19
M  V30 19 2 18 20
M  V30 20 2 19 21
M  V30 21 1 19 22
M  V30 22 1 22 23
M  V30 23 1 23 24
M  V30 24 1 23 25
M  V30 25 2 24 26
M  V30 26 1 24 27
M  V30 27 1 25 28
M  V30 28 1 27 29
M  V30 29 2 28 30
M  V30 30 1 28 31
M  V30 31 1 29 32
M  V30 32 1 29 33
M  V30 33 1 32 34
M  V30 34 1 33 35
M  V30 35 1 6 7
M  V30 36 2 11 12
M  V30 37 1 20 21
M  V30 38 1 34 35
M  V30 END BOND
M  V30 END CTAB
M  END
>  <Molecule ChEMBL ID>
CHEMBL1092236

>  <Smiles>
Cc1oc(-c2ccc(Cl)cc2)nc1COc1cccc(CN(CC(=O)O)C(=O)OC2CCCC2)c1

>  <IC50_nM>
9444

>  <Assay Description>
Binding affinity to human His-tagged PPARgamma LBD (Q203-Y477) expressed in Escherichia coli BL21 (DE3) by fluorescence polarization assay

$$$$
CHEMBL4550568
Actelion Java MolfileCreator 2.0

  0  0  0  0  0  0              0 V3000
M  V30 BEGIN CTAB
M  V30 COUNTS 42 45 0 0 0
M  V30 BEGIN ATOM
M  V30 1 F 0.0 4.4999 0.0 0
M  V30 2 C 0.866 3.9999 0.0 0
M  V30 3 C 0.866 2.9999 0.0 0
M  V30 4 C 1.732 4.4999 0.0 0
M  V30 5 C 1.732 2.4999 0.0 0
M  V30 6 C 2.598 3.9999 0.0 0
M  V30 7 C 2.598 3.0 0.0 0
M  V30 8 C 3.4641 2.5 0.0 0
M  V30 9 O 4.3301 3.0 0.0 0
M  V30 10 N 3.4641 1.4999 0.0 0
M  V30 11 C 4.3301 1.0 0.0 0
M  V30 12 C 4.3301 0.0 0.0 0
M  V30 13 C 5.1961 1.5 0.0 0
M  V30 14 C 5.1961 -0.4999 0.0 0
M  V30 15 C 3.4641 -0.5 0.0 0
M  V30 16 C 6.0621 1.0 0.0 0
M  V30 17 C 6.0621 0.0 0.0 0
M  V30 18 C 3.4641 -1.5 0.0 0
M  V30 19 O 6.9282 -0.4999 0.0 0
M  V30 20 C 2.598 -1.9999 0.0 0
M  V30 21 C 4.3301 -2.0 0.0 0
M  V30 22 C 6.9282 -1.4999 0.0 0
M  V30 23 O 1.732 -1.4999 0.0 0
M  V30 24 O 2.598 -2.9999 0.0 0
M  V30 25 C 4.3301 -3.0 0.0 0
M  V30 26 C 7.7942 -1.9999 0.0 0
M  V30 27 C 5.1961 -3.5 0.0 0
M  V30 28 C 7.7942 -2.9999 0.0 0
M  V30 29 C 8.6602 -1.4999 0.0 0
M  V30 30 C 8.6602 -3.4999 0.0 0
M  V30 31 C 9.5262 -1.9999 0.0 0
M  V30 32 C 8.6602 -4.4999 0.0 0
M  V30 33 C 9.5262 -2.9999 0.0 0
M  V30 34 O 7.7942 -5.0 0.0 0
M  V30 35 C 9.5262 -4.9999 0.0 0
M  V30 36 N 10.3923 -3.4999 0.0 0
M  V30 37 C 7.7942 -5.9999 0.0 0
M  V30 38 C 10.3923 -4.4999 0.0 0
M  V30 39 C 11.2583 -4.9999 0.0 0
M  V30 40 F 11.7583 -4.1339 0.0 0
M  V30 41 F 12.1243 -5.4999 0.0 0
M  V30 42 F 10.7583 -5.866 0.0 0
M  V30 END ATOM
M  V30 BEGIN BOND
M  V30 1 1 1 2
M  V30 2 2 2 3
M  V30 3 1 2 4
M  V30 4 1 3 5
M  V30 5 2 4 6
M  V30 6 2 5 7
M  V30 7 1 7 8
M  V30 8 2 8 9
M  V30 9 1 8 10
M  V30 10 1 10 11
M  V30 11 2 11 12
M  V30 12 1 11 13
M  V30 13 1 12 14
M  V30 14 1 12 15
M  V30 15 2 13 16
M  V30 16 2 14 17
M  V30 17 2 15 18
M  V30 18 1 17 19
M  V30 19 1 18 20
M  V30 20 1 18 21
M  V30 21 1 19 22
M  V30 22 2 20 23
M  V30 23 1 20 24
M  V30 24 1 21 25
M  V30 25 1 22 26
M  V30 26 1 25 27
M  V30 27 2 26 28
M  V30 28 1 26 29
M  V30 29 1 28 30
M  V30 30 2 29 31
M  V30 31 2 30 32
M  V30 32 1 30 33
M  V30 33 1 32 34
M  V30 34 1 32 35
M  V30 35 2 33 36
M  V30 36 1 34 37
M  V30 37 2 35 38
M  V30 38 1 38 39
M  V30 39 1 39 40
M  V30 40 1 39 41
M  V30 41 1 39 42
M  V30 42 1 6 7
M  V30 43 1 16 17
M  V30 44 1 31 33
M  V30 45 1 36 38
M  V30 END BOND
M  V30 END CTAB
M  END
>  <Molecule ChEMBL ID>
CHEMBL4550568

>  <Smiles>
CCC/C(=C\c1cc(OCc2ccc3nc(C(F)(F)F)cc(OC)c3c2)ccc1NC(=O)c1ccc(F)cc1)C(=O)O

>  <IC50_nM>
9500

>  <Assay Description>
Antagonist actvity in pFA-GAL4-DBD fused PPARgamma LBD (unknown origin) transfected in HEK293T cells assessed as inhibition of rosiglitazone-induced PPARgamma transactivation incubated for 24 hrs by luciferase reporter gene assay

$$$$
CHEMBL4533671
Actelion Java MolfileCreator 2.0

  0  0  0  0  0  0              0 V3000
M  V30 BEGIN CTAB
M  V30 COUNTS 41 44 0 0 0
M  V30 BEGIN ATOM
M  V30 1 F 8.8923 12.75 0.0 0
M  V30 2 C 10.3923 12.7499 0.0 0
M  V30 3 F 10.3923 14.25 0.0 0
M  V30 4 F 11.8923 12.7499 0.0 0
M  V30 5 C 10.3923 11.25 0.0 0
M  V30 6 N 9.0932 10.5 0.0 0
M  V30 7 C 11.6913 10.4999 0.0 0
M  V30 8 C 9.0932 8.9999 0.0 0
M  V30 9 C 11.6913 8.9999 0.0 0
M  V30 10 C 10.3923 8.25 0.0 0
M  V30 11 C 7.7942 8.25 0.0 0
M  V30 12 O 12.9903 8.2499 0.0 0
M  V30 13 C 10.3923 6.75 0.0 0
M  V30 14 C 7.7942 6.75 0.0 0
M  V30 15 C 14.2894 8.9999 0.0 0
M  V30 16 C 9.0932 5.9999 0.0 0
M  V30 17 C 9.0932 4.4999 0.0 0
M  V30 18 O 7.7942 3.75 0.0 0
M  V30 19 C 7.7942 2.25 0.0 0
M  V30 20 C 6.4951 1.5 0.0 0
M  V30 21 C 9.0932 1.4999 0.0 0
M  V30 22 C 6.4951 0.0 0.0 0
M  V30 23 C 9.0932 0.0 0.0 0
M  V30 24 C 7.7942 -0.75 0.0 0
M  V30 25 C 5.1961 -0.75 0.0 0
M  V30 26 O 7.7942 -2.25 0.0 0
M  V30 27 C 3.8971 0.0 0.0 0
M  V30 28 C 9.0932 -3.0 0.0 0
M  V30 29 C 2.598 -0.75 0.0 0
M  V30 30 C 3.8971 1.4999 0.0 0
M  V30 31 C 9.0932 -4.5 0.0 0
M  V30 32 O 2.598 -2.25 0.0 0
M  V30 33 O 1.299 0.0 0.0 0
M  V30 34 C 2.598 2.2499 0.0 0
M  V30 35 N 10.3923 -5.25 0.0 0
M  V30 36 C 2.598 3.75 0.0 0
M  V30 37 C 10.3923 -6.75 0.0 0
M  V30 38 C 11.6913 -4.5 0.0 0
M  V30 39 C 11.6913 -7.5 0.0 0
M  V30 40 C 12.9903 -5.25 0.0 0
M  V30 41 N 12.9903 -6.75 0.0 0
M  V30 END ATOM
M  V30 BEGIN BOND
M  V30 1 1 1 2
M  V30 2 1 2 3
M  V30 3 1 2 4
M  V30 4 1 2 5
M  V30 5 2 5 6
M  V30 6 1 5 7
M  V30 7 1 6 8
M  V30 8 2 7 9
M  V30 9 1 8 10
M  V30 10 2 8 11
M  V30 11 1 9 12
M  V30 12 2 10 13
M  V30 13 1 11 14
M  V30 14 1 12 15
M  V30 15 1 13 16
M  V30 16 1 16 17
M  V30 17 1 17 18
M  V30 18 1 18 19
M  V30 19 2 19 20
M  V30 20 1 19 21
M  V30 21 1 20 22
M  V30 22 2 21 23
M  V30 23 2 22 24
M  V30 24 1 22 25
M  V30 25 1 24 26
M  V30 26 2 25 27
M  V30 27 1 26 28
M  V30 28 1 27 29
M  V30 29 1 27 30
M  V30 30 1 28 31
M  V30 31 2 29 32
M  V30 32 1 29 33
M  V30 33 1 30 34
M  V30 34 1 31 35
M  V30 35 1 34 36
M  V30 36 1 35 37
M  V30 37 1 35 38
M  V30 38 1 37 39
M  V30 39 1 38 40
M  V30 40 1 39 41
M  V30 41 1 9 10
M  V30 42 2 14 16
M  V30 43 1 23 24
M  V30 44 1 40 41
M  V30 END BOND
M  V30 END CTAB
M  END
>  <Molecule ChEMBL ID>
CHEMBL4533671

>  <Smiles>
CCC/C(=C\c1cc(OCc2ccc3nc(C(F)(F)F)cc(OC)c3c2)ccc1OCCN1CCNCC1)C(=O)O

>  <IC50_nM>
9600

>  <Assay Description>
Antagonist actvity in pFA-GAL4-DBD fused PPARgamma LBD (unknown origin) transfected in HEK293T cells assessed as inhibition of rosiglitazone-induced PPARgamma transactivation incubated for 24 hrs by luciferase reporter gene assay

$$$$
CHEMBL3398428
Actelion Java MolfileCreator 2.0

  0  0  0  0  0  0              0 V3000
M  V30 BEGIN CTAB
M  V30 COUNTS 34 37 0 0 0
M  V30 BEGIN ATOM
M  V30 1 O 3.4641 -0.5 0.0 0
M  V30 2 C 2.598 0.0 0.0 0
M  V30 3 O 1.732 -0.5 0.0 0
M  V30 4 N 2.598 1.0 0.0 0
M  V30 5 C 0.866 0.0 0.0 0
M  V30 6 C 3.407 1.5877 0.0 0
M  V30 7 C 1.789 1.5877 0.0 0
M  V30 8 C 0.0 -0.5 0.0 0
M  V30 9 C 3.098 2.5388 0.0 0 CFG=1
M  V30 10 C 2.098 2.5388 0.0 0 CFG=1
M  V30 11 C 3.6858 3.3478 0.0 0
M  V30 12 C 1.5102 3.3478 0.0 0
M  V30 13 C 4.6803 3.2433 0.0 0
M  V30 14 C 3.2791 4.2614 0.0 0
M  V30 15 O 1.917 4.2614 0.0 0
M  V30 16 O 0.5157 3.2433 0.0 0
M  V30 17 C 5.2681 4.0523 0.0 0
M  V30 18 C 3.8669 5.0704 0.0 0
M  V30 19 C 4.8614 4.9658 0.0 0
M  V30 20 O 5.4492 5.7749 0.0 0
M  V30 21 C 5.0424 6.6884 0.0 0
M  V30 22 C 5.6302 7.4974 0.0 0
M  V30 23 C 5.2235 8.411 0.0 0
M  V30 24 N 5.7235 9.277 0.0 0
M  V30 25 C 4.2453 8.6189 0.0 0
M  V30 26 C 5.0543 10.0201 0.0 0
M  V30 27 O 4.1408 9.6134 0.0 0
M  V30 28 C 3.5022 7.9497 0.0 0
M  V30 29 C 5.2623 10.9983 0.0 0
M  V30 30 C 6.2133 11.3073 0.0 0
M  V30 31 C 4.5191 11.6674 0.0 0
M  V30 32 C 6.4212 12.2855 0.0 0
M  V30 33 C 4.727 12.6456 0.0 0
M  V30 34 C 5.6781 12.9546 0.0 0
M  V30 END ATOM
M  V30 BEGIN BOND
M  V30 1 2 1 2
M  V30 2 1 2 3
M  V30 3 1 2 4
M  V30 4 1 3 5
M  V30 5 1 4 6
M  V30 6 1 4 7
M  V30 7 1 5 8
M  V30 8 1 6 9
M  V30 9 1 7 10
M  V30 10 1 9 11 CFG=1
M  V30 11 1 10 12 CFG=3
M  V30 12 2 11 13
M  V30 13 1 11 14
M  V30 14 2 12 15
M  V30 15 1 12 16
M  V30 16 1 13 17
M  V30 17 2 14 18
M  V30 18 2 17 19
M  V30 19 1 19 20
M  V30 20 1 20 21
M  V30 21 1 21 22
M  V30 22 1 22 23
M  V30 23 1 23 24
M  V30 24 2 23 25
M  V30 25 2 24 26
M  V30 26 1 25 27
M  V30 27 1 25 28
M  V30 28 1 26 29
M  V30 29 2 29 30
M  V30 30 1 29 31
M  V30 31 1 30 32
M  V30 32 2 31 33
M  V30 33 2 32 34
M  V30 34 1 9 10
M  V30 35 1 18 19
M  V30 36 1 26 27
M  V30 37 1 33 34
M  V30 END BOND
M  V30 BEGIN COLLECTION
M  V30 MDLV30/STEABS ATOMS=(2 9 10)
M  V30 END COLLECTION
M  V30 END CTAB
M  END
>  <Molecule ChEMBL ID>
CHEMBL3398428

>  <Smiles>
CCOC(=O)N1C[C@H](C(=O)O)[C@@H](c2ccc(OCCc3nc(-c4ccccc4)oc3C)cc2)C1

>  <IC50_nM>
10000

>  <Assay Description>
Binding affinity to PPARgamma (unknown origin) using fluorescein-tagged dual PPARalpha/gamma activator by homogeneous fluorescence polarization binding assay

$$$$
CHEMBL3398425
Actelion Java MolfileCreator 2.0

  0  0  0  0  0  0              0 V3000
M  V30 BEGIN CTAB
M  V30 COUNTS 38 42 0 0 0
M  V30 BEGIN ATOM
M  V30 1 O 8.5461 2.2205 0.0 0
M  V30 2 C 7.5515 2.1159 0.0 0
M  V30 3 O 6.9638 2.9249 0.0 0
M  V30 4 N 7.1448 1.2024 0.0 0
M  V30 5 C 5.9692 2.8204 0.0 0
M  V30 6 C 6.1667 0.9945 0.0 0
M  V30 7 C 7.6448 0.3364 0.0 0
M  V30 8 C 5.3814 3.6294 0.0 0
M  V30 9 C 5.5625 1.9069 0.0 0
M  V30 10 C 6.0621 0.0 0.0 0 CFG=2
M  V30 11 C 6.9757 -0.4067 0.0 0 CFG=1
M  V30 12 C 4.3869 3.5249 0.0 0
M  V30 13 C 4.568 1.8023 0.0 0
M  V30 14 C 5.1961 -0.5 0.0 0
M  V30 15 C 7.1836 -1.3848 0.0 0
M  V30 16 C 3.9802 2.6114 0.0 0
M  V30 17 C 4.3301 0.0 0.0 0
M  V30 18 C 5.1961 -1.4999 0.0 0
M  V30 19 O 6.4404 -2.054 0.0 0
M  V30 20 O 8.1346 -1.6939 0.0 0
M  V30 21 C 3.4641 -0.5 0.0 0
M  V30 22 C 4.3301 -1.9999 0.0 0
M  V30 23 O 2.598 0.0 0.0 0
M  V30 24 C 3.4641 -1.4999 0.0 0
M  V30 25 C 1.732 -0.5 0.0 0
M  V30 26 C 0.866 0.0 0.0 0
M  V30 27 C 0.0 -0.5 0.0 0
M  V30 28 N -0.9135 -0.0932 0.0 0
M  V30 29 C -0.1045 -1.4945 0.0 0
M  V30 30 C -1.5826 -0.8364 0.0 0
M  V30 31 O -1.0826 -1.7024 0.0 0
M  V30 32 C 0.6386 -2.1636 0.0 0
M  V30 33 C -2.5771 -0.7318 0.0 0
M  V30 34 C -2.9839 0.1816 0.0 0
M  V30 35 C -3.1649 -1.5408 0.0 0
M  V30 36 C -3.9784 0.2861 0.0 0
M  V30 37 C -4.1595 -1.4363 0.0 0
M  V30 38 C -4.5662 -0.5228 0.0 0
M  V30 END ATOM
M  V30 BEGIN BOND
M  V30 1 2 1 2
M  V30 2 1 2 3
M  V30 3 1 2 4
M  V30 4 1 3 5
M  V30 5 1 4 6
M  V30 6 1 4 7
M  V30 7 2 5 8
M  V30 8 1 5 9
M  V30 9 1 6 10
M  V30 10 1 7 11
M  V30 11 1 8 12
M  V30 12 2 9 13
M  V30 13 1 10 14 CFG=3
M  V30 14 1 11 15 CFG=3
M  V30 15 2 12 16
M  V30 16 2 14 17
M  V30 17 1 14 18
M  V30 18 2 15 19
M  V30 19 1 15 20
M  V30 20 1 17 21
M  V30 21 2 18 22
M  V30 22 1 21 23
M  V30 23 2 21 24
M  V30 24 1 23 25
M  V30 25 1 25 26
M  V30 26 1 26 27
M  V30 27 1 27 28
M  V30 28 2 27 29
M  V30 29 2 28 30
M  V30 30 1 29 31
M  V30 31 1 29 32
M  V30 32 1 30 33
M  V30 33 2 33 34
M  V30 34 1 33 35
M  V30 35 1 34 36
M  V30 36 2 35 37
M  V30 37 2 36 38
M  V30 38 1 10 11
M  V30 39 1 13 16
M  V30 40 1 22 24
M  V30 41 1 30 31
M  V30 42 1 37 38
M  V30 END BOND
M  V30 BEGIN COLLECTION
M  V30 MDLV30/STEABS ATOMS=(2 10 11)
M  V30 END COLLECTION
M  V30 END CTAB
M  END
>  <Molecule ChEMBL ID>
CHEMBL3398425

>  <Smiles>
Cc1oc(-c2ccccc2)nc1CCOc1cccc([C@@H]2CN(C(=O)Oc3ccccc3)C[C@@H]2C(=O)O)c1

>  <IC50_nM>
10000

>  <Assay Description>
Binding affinity to PPARgamma (unknown origin) using fluorescein-tagged dual PPARalpha/gamma activator by homogeneous fluorescence polarization binding assay

$$$$
CHEMBL598372
Actelion Java MolfileCreator 2.0

  0  0  0  0  0  0              0 V3000
M  V30 BEGIN CTAB
M  V30 COUNTS 26 27 0 0 0
M  V30 BEGIN ATOM
M  V30 1 Cl 12.9904 2.25 0.0 0
M  V30 2 C 11.6913 1.5 0.0 0
M  V30 3 C 10.3923 2.25 0.0 0
M  V30 4 C 11.6913 0.0 0.0 0
M  V30 5 C 9.0932 1.5 0.0 0
M  V30 6 C 10.3923 -0.75 0.0 0
M  V30 7 C 9.0932 0.0 0.0 0
M  V30 8 C 7.7942 -0.75 0.0 0
M  V30 9 O 7.7942 -2.25 0.0 0
M  V30 10 N 6.4952 0.0 0.0 0
M  V30 11 C 5.1961 -0.75 0.0 0
M  V30 12 C 3.8971 0.0 0.0 0
M  V30 13 C 2.598 -0.75 0.0 0
M  V30 14 S 1.299 0.0 0.0 0
M  V30 15 O 2.049 1.299 0.0 0
M  V30 16 O 0.549 1.299 0.0 0
M  V30 17 C 0.0 -0.75 0.0 0
M  V30 18 N -1.299 0.0 0.0 0
M  V30 19 C 0.0 -2.25 0.0 0
M  V30 20 C -2.598 -0.75 0.0 0
M  V30 21 C -1.299 -3.0 0.0 0
M  V30 22 C -2.598 -2.25 0.0 0
M  V30 23 C -3.8971 -3.0 0.0 0
M  V30 24 F -3.1471 -4.299 0.0 0
M  V30 25 F -5.1961 -3.75 0.0 0
M  V30 26 F -4.6471 -1.7009 0.0 0
M  V30 END ATOM
M  V30 BEGIN BOND
M  V30 1 1 1 2
M  V30 2 2 2 3
M  V30 3 1 2 4
M  V30 4 1 3 5
M  V30 5 2 4 6
M  V30 6 2 5 7
M  V30 7 1 7 8
M  V30 8 2 8 9
M  V30 9 1 8 10
M  V30 10 1 10 11
M  V30 11 1 11 12
M  V30 12 1 12 13
M  V30 13 1 13 14
M  V30 14 2 14 15
M  V30 15 2 14 16
M  V30 16 1 14 17
M  V30 17 2 17 18
M  V30 18 1 17 19
M  V30 19 1 18 20
M  V30 20 2 19 21
M  V30 21 2 20 22
M  V30 22 1 22 23
M  V30 23 1 23 24
M  V30 24 1 23 25
M  V30 25 1 23 26
M  V30 26 1 6 7
M  V30 27 1 21 22
M  V30 END BOND
M  V30 END CTAB
M  END
>  <Molecule ChEMBL ID>
CHEMBL598372

>  <Smiles>
O=C(NCCCS(=O)(=O)c1ccc(C(F)(F)F)cn1)c1ccc(Cl)cc1

>  <IC50_nM>
10000

>  <Assay Description>
Inhibition of human PPARgamma receptor by ligand displacement assay

$$$$
CHEMBL609901
Actelion Java MolfileCreator 2.0

  0  0  0  0  0  0              0 V3000
M  V30 BEGIN CTAB
M  V30 COUNTS 26 27 0 0 0
M  V30 BEGIN ATOM
M  V30 1 Cl 11.6913 -3.0 0.0 0
M  V30 2 C 10.3923 -2.25 0.0 0
M  V30 3 C 10.3923 -0.75 0.0 0
M  V30 4 C 9.0932 -3.0 0.0 0
M  V30 5 C 9.0932 0.0 0.0 0
M  V30 6 C 11.6913 0.0 0.0 0
M  V30 7 C 7.7942 -2.25 0.0 0
M  V30 8 C 7.7942 -0.75 0.0 0
M  V30 9 C 6.4952 0.0 0.0 0
M  V30 10 O 6.4952 1.5 0.0 0
M  V30 11 N 5.1961 -0.75 0.0 0
M  V30 12 C 3.8971 0.0 0.0 0
M  V30 13 C 2.598 -0.75 0.0 0
M  V30 14 S 1.299 0.0 0.0 0
M  V30 15 O 2.049 1.299 0.0 0
M  V30 16 O 0.549 1.299 0.0 0
M  V30 17 C 0.0 -0.75 0.0 0
M  V30 18 N -1.299 0.0 0.0 0
M  V30 19 C 0.0 -2.25 0.0 0
M  V30 20 C -2.598 -0.75 0.0 0
M  V30 21 C -1.299 -3.0 0.0 0
M  V30 22 C -2.598 -2.25 0.0 0
M  V30 23 C -3.8971 -3.0 0.0 0
M  V30 24 F -3.1471 -4.299 0.0 0
M  V30 25 F -5.1961 -3.75 0.0 0
M  V30 26 F -4.6471 -1.7009 0.0 0
M  V30 END ATOM
M  V30 BEGIN BOND
M  V30 1 1 1 2
M  V30 2 2 2 3
M  V30 3 1 2 4
M  V30 4 1 3 5
M  V30 5 1 3 6
M  V30 6 2 4 7
M  V30 7 2 5 8
M  V30 8 1 8 9
M  V30 9 2 9 10
M  V30 10 1 9 11
M  V30 11 1 11 12
M  V30 12 1 12 13
M  V30 13 1 13 14
M  V30 14 2 14 15
M  V30 15 2 14 16
M  V30 16 1 14 17
M  V30 17 2 17 18
M  V30 18 1 17 19
M  V30 19 1 18 20
M  V30 20 2 19 21
M  V30 21 2 20 22
M  V30 22 1 22 23
M  V30 23 1 23 24
M  V30 24 1 23 25
M  V30 25 1 23 26
M  V30 26 1 7 8
M  V30 27 1 21 22
M  V30 END BOND
M  V30 END CTAB
M  END
>  <Molecule ChEMBL ID>
CHEMBL609901

>  <Smiles>
Cc1cc(C(=O)NCCS(=O)(=O)c2ccc(C(F)(F)F)cn2)ccc1Cl

>  <IC50_nM>
10000

>  <Assay Description>
Inhibition of human PPARgamma receptor by ligand displacement assay

$$$$
CHEMBL598371
Actelion Java MolfileCreator 2.0

  0  0  0  0  0  0              0 V3000
M  V30 BEGIN CTAB
M  V30 COUNTS 26 27 0 0 0
M  V30 BEGIN ATOM
M  V30 1 Br 11.6913 -3.0 0.0 0
M  V30 2 C 10.3923 -2.25 0.0 0
M  V30 3 C 10.3923 -0.75 0.0 0
M  V30 4 C 9.0932 -3.0 0.0 0
M  V30 5 C 9.0932 0.0 0.0 0
M  V30 6 C 7.7942 -2.25 0.0 0
M  V30 7 F 9.0932 1.5 0.0 0
M  V30 8 C 7.7942 -0.75 0.0 0
M  V30 9 C 6.4952 0.0 0.0 0
M  V30 10 O 6.4952 1.5 0.0 0
M  V30 11 N 5.1961 -0.75 0.0 0
M  V30 12 C 3.8971 0.0 0.0 0
M  V30 13 C 2.598 -0.75 0.0 0
M  V30 14 S 1.299 0.0 0.0 0
M  V30 15 O 2.049 1.299 0.0 0
M  V30 16 O 0.549 1.299 0.0 0
M  V30 17 C 0.0 -0.75 0.0 0
M  V30 18 N -1.299 0.0 0.0 0
M  V30 19 C 0.0 -2.25 0.0 0
M  V30 20 C -2.598 -0.75 0.0 0
M  V30 21 C -1.299 -3.0 0.0 0
M  V30 22 C -2.598 -2.25 0.0 0
M  V30 23 C -3.8971 -3.0 0.0 0
M  V30 24 F -3.1471 -4.299 0.0 0
M  V30 25 F -5.1961 -3.75 0.0 0
M  V30 26 F -4.6471 -1.7009 0.0 0
M  V30 END ATOM
M  V30 BEGIN BOND
M  V30 1 1 1 2
M  V30 2 2 2 3
M  V30 3 1 2 4
M  V30 4 1 3 5
M  V30 5 2 4 6
M  V30 6 1 5 7
M  V30 7 2 5 8
M  V30 8 1 8 9
M  V30 9 2 9 10
M  V30 10 1 9 11
M  V30 11 1 11 12
M  V30 12 1 12 13
M  V30 13 1 13 14
M  V30 14 2 14 15
M  V30 15 2 14 16
M  V30 16 1 14 17
M  V30 17 2 17 18
M  V30 18 1 17 19
M  V30 19 1 18 20
M  V30 20 2 19 21
M  V30 21 2 20 22
M  V30 22 1 22 23
M  V30 23 1 23 24
M  V30 24 1 23 25
M  V30 25 1 23 26
M  V30 26 1 6 8
M  V30 27 1 21 22
M  V30 END BOND
M  V30 END CTAB
M  END
>  <Molecule ChEMBL ID>
CHEMBL598371

>  <Smiles>
O=C(NCCS(=O)(=O)c1ccc(C(F)(F)F)cn1)c1ccc(Br)cc1F

>  <IC50_nM>
10000

>  <Assay Description>
Inhibition of human PPARgamma receptor by ligand displacement assay

$$$$
CHEMBL605207
Actelion Java MolfileCreator 2.0

  0  0  0  0  0  0              0 V3000
M  V30 BEGIN CTAB
M  V30 COUNTS 22 23 0 0 0
M  V30 BEGIN ATOM
M  V30 1 Cl 11.6913 -3.0 0.0 0
M  V30 2 C 10.3923 -2.25 0.0 0
M  V30 3 C 10.3923 -0.75 0.0 0
M  V30 4 C 9.0932 -3.0 0.0 0
M  V30 5 C 9.0932 0.0 0.0 0
M  V30 6 C 7.7942 -2.25 0.0 0
M  V30 7 C 7.7942 -0.75 0.0 0
M  V30 8 C 6.4952 0.0 0.0 0
M  V30 9 O 6.4952 1.5 0.0 0
M  V30 10 N 5.1961 -0.75 0.0 0
M  V30 11 C 3.8971 0.0 0.0 0
M  V30 12 C 2.598 -0.75 0.0 0
M  V30 13 S 1.299 0.0 0.0 0
M  V30 14 O 2.049 1.299 0.0 0
M  V30 15 O 0.549 1.299 0.0 0
M  V30 16 C 0.0 -0.75 0.0 0
M  V30 17 N -1.299 0.0 0.0 0
M  V30 18 C 0.0 -2.25 0.0 0
M  V30 19 C -2.598 -0.75 0.0 0
M  V30 20 C -1.299 -3.0 0.0 0
M  V30 21 C -2.598 -2.25 0.0 0
M  V30 22 C -3.8971 -3.0 0.0 0
M  V30 END ATOM
M  V30 BEGIN BOND
M  V30 1 1 1 2
M  V30 2 2 2 3
M  V30 3 1 2 4
M  V30 4 1 3 5
M  V30 5 2 4 6
M  V30 6 2 5 7
M  V30 7 1 7 8
M  V30 8 2 8 9
M  V30 9 1 8 10
M  V30 10 1 10 11
M  V30 11 1 11 12
M  V30 12 1 12 13
M  V30 13 2 13 14
M  V30 14 2 13 15
M  V30 15 1 13 16
M  V30 16 2 16 17
M  V30 17 1 16 18
M  V30 18 1 17 19
M  V30 19 2 18 20
M  V30 20 2 19 21
M  V30 21 1 21 22
M  V30 22 1 6 7
M  V30 23 1 20 21
M  V30 END BOND
M  V30 END CTAB
M  END
>  <Molecule ChEMBL ID>
CHEMBL605207

>  <Smiles>
Cc1ccc(S(=O)(=O)CCNC(=O)c2ccc(Cl)cc2)nc1

>  <IC50_nM>
10000

>  <Assay Description>
Inhibition of human PPARgamma receptor by ligand displacement assay

$$$$
CHEMBL231689
Actelion Java MolfileCreator 2.0

  0  0  0  0  0  0              0 V3000
M  V30 BEGIN CTAB
M  V30 COUNTS 33 36 0 0 0
M  V30 BEGIN ATOM
M  V30 1 F 4.6961 2.366 0.0 0
M  V30 2 C 5.1961 1.5 0.0 0
M  V30 3 F 6.0621 2.0 0.0 0
M  V30 4 F 5.6961 0.6339 0.0 0
M  V30 5 C 4.3301 1.0 0.0 0
M  V30 6 C 3.4641 1.5 0.0 0
M  V30 7 C 4.3301 0.0 0.0 0
M  V30 8 C 2.598 0.9999 0.0 0
M  V30 9 C 3.4641 -0.4999 0.0 0
M  V30 10 C 2.598 0.0 0.0 0
M  V30 11 O 1.732 -0.5 0.0 0
M  V30 12 C 0.866 0.0 0.0 0
M  V30 13 C 0.0 -0.5 0.0 0
M  V30 14 C -0.866 0.0 0.0 0
M  V30 15 C 0.0 -1.4999 0.0 0
M  V30 16 C -1.732 -0.4999 0.0 0
M  V30 17 C -0.866 -1.9999 0.0 0
M  V30 18 C -1.732 -1.4999 0.0 0
M  V30 19 C -2.598 0.0 0.0 0
M  V30 20 O -2.598 1.0 0.0 0
M  V30 21 C -3.4641 1.5 0.0 0
M  V30 22 C -4.3301 1.0 0.0 0
M  V30 23 C -3.4641 2.5 0.0 0
M  V30 24 C -5.1961 1.5 0.0 0
M  V30 25 C -4.3301 3.0 0.0 0
M  V30 26 C -5.1961 2.5 0.0 0
M  V30 27 C -6.1472 1.1909 0.0 0
M  V30 28 N -6.1472 2.809 0.0 0
M  V30 29 C -6.7349 2.0 0.0 0
M  V30 30 C -6.4562 3.76 0.0 0
M  V30 31 C -5.787 4.5032 0.0 0
M  V30 32 O -4.8089 4.2953 0.0 0
M  V30 33 O -6.0961 5.4542 0.0 0
M  V30 END ATOM
M  V30 BEGIN BOND
M  V30 1 1 1 2
M  V30 2 1 2 3
M  V30 3 1 2 4
M  V30 4 1 2 5
M  V30 5 2 5 6
M  V30 6 1 5 7
M  V30 7 1 6 8
M  V30 8 2 7 9
M  V30 9 2 8 10
M  V30 10 1 10 11
M  V30 11 1 11 12
M  V30 12 1 12 13
M  V30 13 2 13 14
M  V30 14 1 13 15
M  V30 15 1 14 16
M  V30 16 2 15 17
M  V30 17 2 16 18
M  V30 18 1 16 19
M  V30 19 1 19 20
M  V30 20 1 20 21
M  V30 21 2 21 22
M  V30 22 1 21 23
M  V30 23 1 22 24
M  V30 24 2 23 25
M  V30 25 2 24 26
M  V30 26 1 24 27
M  V30 27 1 26 28
M  V30 28 2 27 29
M  V30 29 1 28 30
M  V30 30 1 30 31
M  V30 31 2 31 32
M  V30 32 1 31 33
M  V30 33 1 9 10
M  V30 34 1 17 18
M  V30 35 1 25 26
M  V30 36 1 28 29
M  V30 END BOND
M  V30 END CTAB
M  END
>  <Molecule ChEMBL ID>
CHEMBL231689

>  <Smiles>
O=C(O)Cn1ccc2cc(OCc3cccc(COc4ccc(C(F)(F)F)cc4)c3)ccc21

>  <IC50_nM>
10000

>  <Assay Description>
Displacement of [3H]5-(4-(3-(5-methyl-2-phenyloxazol-4-yl)propanoyl)benzyl)thiazolidine-2,4-dione from human PPARgamma after 2 hrs by SPA

$$$$
CHEMBL234169
Actelion Java MolfileCreator 2.0

  0  0  0  0  0  0              0 V3000
M  V30 BEGIN CTAB
M  V30 COUNTS 32 35 0 0 0
M  V30 BEGIN ATOM
M  V30 1 Cl 3.1515 -2.1009 0.0 0
M  V30 2 C 3.8206 -1.3577 0.0 0
M  V30 3 C 3.5116 -0.4067 0.0 0
M  V30 4 C 4.7987 -1.5657 0.0 0
M  V30 5 C 4.1807 0.3364 0.0 0
M  V30 6 C 2.598 0.0 0.0 0
M  V30 7 C 5.4679 -0.8225 0.0 0
M  V30 8 S 3.6807 1.2024 0.0 0
M  V30 9 C 5.1588 0.1284 0.0 0
M  V30 10 C 2.7026 0.9945 0.0 0
M  V30 11 C 1.732 -0.5 0.0 0
M  V30 12 O 6.446 -1.0304 0.0 0
M  V30 13 C 0.866 0.0 0.0 0
M  V30 14 C 6.755 -1.9815 0.0 0
M  V30 15 O 0.866 1.0 0.0 0
M  V30 16 O 0.0 -0.5 0.0 0
M  V30 17 C 7.7332 -2.1894 0.0 0
M  V30 18 S 8.1399 -3.1029 0.0 0
M  V30 19 C 8.4763 -1.5203 0.0 0
M  V30 20 C 9.1344 -2.9984 0.0 0
M  V30 21 N 9.3423 -2.0203 0.0 0
M  V30 22 C 8.3718 -0.5257 0.0 0
M  V30 23 C 9.8036 -3.7416 0.0 0
M  V30 24 C 9.4946 -4.6926 0.0 0
M  V30 25 C 10.7817 -3.5336 0.0 0
M  V30 26 C 10.1637 -5.4358 0.0 0
M  V30 27 C 11.4508 -4.2768 0.0 0
M  V30 28 C 11.1418 -5.2278 0.0 0
M  V30 29 C 11.811 -5.971 0.0 0
M  V30 30 F 12.5541 -5.3019 0.0 0
M  V30 31 F 12.4801 -6.7141 0.0 0
M  V30 32 F 11.0678 -6.6401 0.0 0
M  V30 END ATOM
M  V30 BEGIN BOND
M  V30 1 1 1 2
M  V30 2 2 2 3
M  V30 3 1 2 4
M  V30 4 1 3 5
M  V30 5 1 3 6
M  V30 6 2 4 7
M  V30 7 1 5 8
M  V30 8 2 5 9
M  V30 9 2 6 10
M  V30 10 1 6 11
M  V30 11 1 7 12
M  V30 12 1 11 13
M  V30 13 1 12 14
M  V30 14 2 13 15
M  V30 15 1 13 16
M  V30 16 1 14 17
M  V30 17 1 17 18
M  V30 18 2 17 19
M  V30 19 1 18 20
M  V30 20 1 19 21
M  V30 21 1 19 22
M  V30 22 1 20 23
M  V30 23 2 23 24
M  V30 24 1 23 25
M  V30 25 1 24 26
M  V30 26 2 25 27
M  V30 27 2 26 28
M  V30 28 1 28 29
M  V30 29 1 29 30
M  V30 30 1 29 31
M  V30 31 1 29 32
M  V30 32 1 7 9
M  V30 33 1 8 10
M  V30 34 2 20 21
M  V30 35 1 27 28
M  V30 END BOND
M  V30 END CTAB
M  END
>  <Molecule ChEMBL ID>
CHEMBL234169

>  <Smiles>
Cc1nc(-c2ccc(C(F)(F)F)cc2)sc1COc1cc(Cl)c2c(CC(=O)O)csc2c1

>  <IC50_nM>
10000

>  <Assay Description>
Displacement of [3H]5-(4-(3-(5-methyl-2-phenyloxazol-4-yl)propanoyl)benzyl)thiazolidine-2,4-dione from human PPARgamma after 2 hrs by SPA

$$$$
CHEMBL514174
Actelion Java MolfileCreator 2.0

  0  0  0  0  0  0              0 V3000
M  V30 BEGIN CTAB
M  V30 COUNTS 36 40 0 0 0
M  V30 BEGIN ATOM
M  V30 1 O 6.0957 -3.5256 0.0 0
M  V30 2 C 6.4627 -4.9254 0.0 0
M  V30 3 O 5.3463 -5.9306 0.0 0
M  V30 4 C 7.8914 -5.3896 0.0 0
M  V30 5 N 8.3556 -6.8183 0.0 0
M  V30 6 C 9.1067 -4.5066 0.0 0
M  V30 7 N 9.8579 -6.8183 0.0 0
M  V30 8 N 10.3221 -5.3896 0.0 0
M  V30 9 C 9.1067 -3.0044 0.0 0
M  V30 10 C 11.7508 -4.9254 0.0 0
M  V30 11 C 7.8058 -2.2533 0.0 0
M  V30 12 C 12.8672 -5.9306 0.0 0
M  V30 13 C 12.0631 -3.456 0.0 0
M  V30 14 C 7.8058 -0.7511 0.0 0
M  V30 15 C 6.5321 -2.9696 0.0 0
M  V30 16 C 14.2959 -5.4664 0.0 0
M  V30 17 C 13.4918 -2.9918 0.0 0
M  V30 18 C 6.5048 0.0 0.0 0
M  V30 19 C 5.2038 -2.2533 0.0 0
M  V30 20 C 14.6082 -3.997 0.0 0
M  V30 21 C 5.2038 -0.7511 0.0 0
M  V30 22 O 3.9029 0.0 0.0 0
M  V30 23 C 2.6019 -0.7511 0.0 0
M  V30 24 C 1.3009 0.0 0.0 0
M  V30 25 C 0.0 -0.7511 0.0 0
M  V30 26 N -1.3723 -0.1401 0.0 0
M  V30 27 C -0.157 -2.2451 0.0 0
M  V30 28 C -2.3775 -1.2564 0.0 0
M  V30 29 O -1.6264 -2.5574 0.0 0
M  V30 30 C 0.9593 -3.2503 0.0 0
M  V30 31 C -3.8715 -1.0994 0.0 0
M  V30 32 C -4.4825 0.2729 0.0 0
M  V30 33 C -4.7545 -2.3147 0.0 0
M  V30 34 C -5.9765 0.4299 0.0 0
M  V30 35 C -6.2485 -2.1577 0.0 0
M  V30 36 C -6.8595 -0.7854 0.0 0
M  V30 END ATOM
M  V30 BEGIN BOND
M  V30 1 2 1 2
M  V30 2 1 2 3
M  V30 3 1 2 4
M  V30 4 1 4 5
M  V30 5 2 4 6
M  V30 6 2 5 7
M  V30 7 1 6 8
M  V30 8 1 6 9
M  V30 9 1 8 10
M  V30 10 1 9 11
M  V30 11 2 10 12
M  V30 12 1 10 13
M  V30 13 2 11 14
M  V30 14 1 11 15
M  V30 15 1 12 16
M  V30 16 2 13 17
M  V30 17 1 14 18
M  V30 18 2 15 19
M  V30 19 2 16 20
M  V30 20 2 18 21
M  V30 21 1 21 22
M  V30 22 1 22 23
M  V30 23 1 23 24
M  V30 24 1 24 25
M  V30 25 1 25 26
M  V30 26 2 25 27
M  V30 27 2 26 28
M  V30 28 1 27 29
M  V30 29 1 27 30
M  V30 30 1 28 31
M  V30 31 2 31 32
M  V30 32 1 31 33
M  V30 33 1 32 34
M  V30 34 2 33 35
M  V30 35 2 34 36
M  V30 36 1 7 8
M  V30 37 1 17 20
M  V30 38 1 19 21
M  V30 39 1 28 29
M  V30 40 1 35 36
M  V30 END BOND
M  V30 END CTAB
M  END
>  <Molecule ChEMBL ID>
CHEMBL514174

>  <Smiles>
Cc1oc(-c2ccccc2)nc1CCOc1ccc(Cc2c(C(=O)O)nnn2-c2ccccc2)cc1

>  <IC50_nM>
10000

>  <Assay Description>
Binding affinity to PPARgamma by fluorescence polarization assay

$$$$
CHEMBL597349
Actelion Java MolfileCreator 2.0

  0  0  0  0  0  0              0 V3000
M  V30 BEGIN CTAB
M  V30 COUNTS 30 31 0 0 0
M  V30 BEGIN ATOM
M  V30 1 S 7.7942 -0.75 0.0 0
M  V30 2 O 7.0442 -2.049 0.0 0
M  V30 3 O 8.5442 -2.049 0.0 0
M  V30 4 C 9.0932 0.0 0.0 0
M  V30 5 C 6.4951 0.0 0.0 0
M  V30 6 N 10.3923 -0.75 0.0 0
M  V30 7 C 9.0932 1.5 0.0 0
M  V30 8 C 5.1961 -0.75 0.0 0
M  V30 9 C 11.6913 0.0 0.0 0
M  V30 10 C 10.3923 2.25 0.0 0
M  V30 11 C 3.8971 0.0 0.0 0
M  V30 12 C 11.6913 1.5 0.0 0
M  V30 13 N 2.598 -0.75 0.0 0
M  V30 14 C 12.9903 2.25 0.0 0
M  V30 15 C 1.299 0.0 0.0 0
M  V30 16 F 12.2403 3.549 0.0 0
M  V30 17 F 14.2894 3.0 0.0 0
M  V30 18 F 13.7404 0.9509 0.0 0
M  V30 19 O 1.299 1.5 0.0 0
M  V30 20 C 0.0 -0.75 0.0 0
M  V30 21 C -1.299 0.0 0.0 0
M  V30 22 C 0.0 -2.25 0.0 0
M  V30 23 C -2.598 -0.75 0.0 0
M  V30 24 C -1.299 -3.0 0.0 0
M  V30 25 C -2.598 -2.25 0.0 0
M  V30 26 O -3.8971 -3.0 0.0 0
M  V30 27 C -3.8971 -4.5 0.0 0
M  V30 28 F -2.3971 -4.5 0.0 0
M  V30 29 F -3.8971 -6.0 0.0 0
M  V30 30 F -5.3971 -4.5 0.0 0
M  V30 END ATOM
M  V30 BEGIN BOND
M  V30 1 2 1 2
M  V30 2 2 1 3
M  V30 3 1 1 4
M  V30 4 1 1 5
M  V30 5 2 4 6
M  V30 6 1 4 7
M  V30 7 1 5 8
M  V30 8 1 6 9
M  V30 9 2 7 10
M  V30 10 1 8 11
M  V30 11 2 9 12
M  V30 12 1 11 13
M  V30 13 1 12 14
M  V30 14 1 13 15
M  V30 15 1 14 16
M  V30 16 1 14 17
M  V30 17 1 14 18
M  V30 18 2 15 19
M  V30 19 1 15 20
M  V30 20 2 20 21
M  V30 21 1 20 22
M  V30 22 1 21 23
M  V30 23 2 22 24
M  V30 24 2 23 25
M  V30 25 1 25 26
M  V30 26 1 26 27
M  V30 27 1 27 28
M  V30 28 1 27 29
M  V30 29 1 27 30
M  V30 30 1 10 12
M  V30 31 1 24 25
M  V30 END BOND
M  V30 END CTAB
M  END
>  <Molecule ChEMBL ID>
CHEMBL597349

>  <Smiles>
O=C(NCCCS(=O)(=O)c1ccc(C(F)(F)F)cn1)c1ccc(OC(F)(F)F)cc1

>  <IC50_nM>
10000

>  <Assay Description>
Inhibition of human PPARgamma receptor by ligand displacement assay

$$$$
CHEMBL3598155
Actelion Java MolfileCreator 2.0

  0  0  0  0  0  0              0 V3000
M  V30 BEGIN CTAB
M  V30 COUNTS 32 35 0 0 0
M  V30 BEGIN ATOM
M  V30 1 Cl -0.866 0.9999 0.0 0
M  V30 2 C 0.0 1.4999 0.0 0
M  V30 3 C 0.866 0.9999 0.0 0
M  V30 4 C 0.0 2.4999 0.0 0
M  V30 5 C 1.732 1.5 0.0 0
M  V30 6 C 0.866 0.0 0.0 0
M  V30 7 C 0.866 3.0 0.0 0
M  V30 8 C 1.732 2.4999 0.0 0
M  V30 9 C 2.598 1.0 0.0 0
M  V30 10 O 1.732 -0.5 0.0 0
M  V30 11 C 0.0 -0.5 0.0 0
M  V30 12 F 3.098 1.866 0.0 0
M  V30 13 F 3.4641 0.5 0.0 0
M  V30 14 F 2.098 0.1339 0.0 0
M  V30 15 N -0.9135 -0.0932 0.0 0
M  V30 16 N -0.1045 -1.4945 0.0 0
M  V30 17 C -1.5826 -0.8364 0.0 0
M  V30 18 C -1.0826 -1.7024 0.0 0
M  V30 19 C 0.5646 -2.2376 0.0 0
M  V30 20 N -2.5771 -0.7318 0.0 0
M  V30 21 C -1.3916 -2.6534 0.0 0
M  V30 22 C 0.2555 -3.1887 0.0 0
M  V30 23 C -2.9839 0.1816 0.0 0
M  V30 24 C -3.1649 -1.5408 0.0 0
M  V30 25 C -0.7225 -3.3966 0.0 0
M  V30 26 C -3.9784 0.2861 0.0 0 CFG=2
M  V30 27 C -4.1595 -1.4363 0.0 0
M  V30 28 O -4.3851 1.1997 0.0 0
M  V30 29 C -4.5662 -0.5228 0.0 0 CFG=2
M  V30 30 C -5.5607 -0.4182 0.0 0
M  V30 31 O -5.9675 0.4952 0.0 0
M  V30 32 O -6.1485 -1.2273 0.0 0
M  V30 END ATOM
M  V30 BEGIN BOND
M  V30 1 1 1 2
M  V30 2 2 2 3
M  V30 3 1 2 4
M  V30 4 1 3 5
M  V30 5 1 3 6
M  V30 6 2 4 7
M  V30 7 2 5 8
M  V30 8 1 5 9
M  V30 9 2 6 10
M  V30 10 1 6 11
M  V30 11 1 9 12
M  V30 12 1 9 13
M  V30 13 1 9 14
M  V30 14 2 11 15
M  V30 15 1 11 16
M  V30 16 1 15 17
M  V30 17 1 16 18
M  V30 18 1 16 19
M  V30 19 1 17 20
M  V30 20 1 18 21
M  V30 21 2 19 22
M  V30 22 1 20 23
M  V30 23 1 20 24
M  V30 24 2 21 25
M  V30 25 1 23 26
M  V30 26 1 24 27
M  V30 27 1 26 28 CFG=1
M  V30 28 1 26 29
M  V30 29 1 29 30 CFG=3
M  V30 30 2 30 31
M  V30 31 1 30 32
M  V30 32 1 7 8
M  V30 33 2 17 18
M  V30 34 1 22 25
M  V30 35 1 27 29
M  V30 END BOND
M  V30 BEGIN COLLECTION
M  V30 MDLV30/STEABS ATOMS=(2 26 29)
M  V30 END COLLECTION
M  V30 END CTAB
M  END
>  <Molecule ChEMBL ID>
CHEMBL3598155

>  <Smiles>
O=C(c1c(Cl)cccc1C(F)(F)F)c1nc(N2CC[C@H](C(=O)O)[C@@H](O)C2)c2ccccn12

>  <IC50_nM>
10000

>  <Assay Description>
Displacement of fluormone PPARgamma green from GST-tagged human PPARgamma-LBD after 2 hrs by fluorescence polarization assay

$$$$
CHEMBL233978
Actelion Java MolfileCreator 2.0

  0  0  0  0  0  0              0 V3000
M  V30 BEGIN CTAB
M  V30 COUNTS 27 30 0 0 0
M  V30 BEGIN ATOM
M  V30 1 Cl 8.1588 -0.0817 0.0 0
M  V30 2 C 7.1643 0.0228 0.0 0
M  V30 3 C 6.7575 0.9363 0.0 0
M  V30 4 C 6.5765 -0.7861 0.0 0
M  V30 5 C 5.763 1.0408 0.0 0
M  V30 6 C 5.582 -0.6816 0.0 0
M  V30 7 C 5.1752 0.2318 0.0 0
M  V30 8 C 4.1807 0.3364 0.0 0
M  V30 9 O 3.6807 1.2024 0.0 0
M  V30 10 C 3.5116 -0.4067 0.0 0
M  V30 11 N 2.7026 0.9945 0.0 0
M  V30 12 C 2.598 0.0 0.0 0
M  V30 13 C 1.732 -0.5 0.0 0
M  V30 14 O 0.866 0.0 0.0 0
M  V30 15 C 0.0 -0.5 0.0 0
M  V30 16 C -0.866 0.0 0.0 0
M  V30 17 C 0.0 -1.5 0.0 0
M  V30 18 C -1.732 -0.4999 0.0 0
M  V30 19 C -0.866 -1.9999 0.0 0
M  V30 20 S -2.6831 -0.1909 0.0 0
M  V30 21 C -1.732 -1.4999 0.0 0
M  V30 22 C -3.2708 -0.9999 0.0 0
M  V30 23 C -2.6831 -1.809 0.0 0
M  V30 24 C -2.9921 -2.76 0.0 0
M  V30 25 C -3.9702 -2.9679 0.0 0
M  V30 26 O -4.6394 -2.2248 0.0 0
M  V30 27 O -4.2792 -3.919 0.0 0
M  V30 END ATOM
M  V30 BEGIN BOND
M  V30 1 1 1 2
M  V30 2 2 2 3
M  V30 3 1 2 4
M  V30 4 1 3 5
M  V30 5 2 4 6
M  V30 6 2 5 7
M  V30 7 1 7 8
M  V30 8 1 8 9
M  V30 9 2 8 10
M  V30 10 1 9 11
M  V30 11 1 10 12
M  V30 12 1 12 13
M  V30 13 1 13 14
M  V30 14 1 14 15
M  V30 15 2 15 16
M  V30 16 1 15 17
M  V30 17 1 16 18
M  V30 18 2 17 19
M  V30 19 1 18 20
M  V30 20 2 18 21
M  V30 21 1 20 22
M  V30 22 1 21 23
M  V30 23 1 23 24
M  V30 24 1 24 25
M  V30 25 2 25 26
M  V30 26 1 25 27
M  V30 27 1 6 7
M  V30 28 2 11 12
M  V30 29 1 19 21
M  V30 30 2 22 23
M  V30 END BOND
M  V30 END CTAB
M  END
>  <Molecule ChEMBL ID>
CHEMBL233978

>  <Smiles>
O=C(O)Cc1csc2cc(OCc3cc(-c4ccc(Cl)cc4)on3)ccc12

>  <IC50_nM>
10000

>  <Assay Description>
Displacement of [3H]5-(4-(3-(5-methyl-2-phenyloxazol-4-yl)propanoyl)benzyl)thiazolidine-2,4-dione from human PPARgamma after 2 hrs by SPA

$$$$
CHEMBL234665
Actelion Java MolfileCreator 2.0

  0  0  0  0  0  0              0 V3000
M  V30 BEGIN CTAB
M  V30 COUNTS 34 37 0 0 0
M  V30 BEGIN ATOM
M  V30 1 S 6.0621 -1.9999 0.0 0
M  V30 2 C 5.1961 -1.4999 0.0 0
M  V30 3 C 6.0621 -2.9999 0.0 0
M  V30 4 C 4.3301 -1.9999 0.0 0
M  V30 5 C 5.1961 -0.4999 0.0 0
M  V30 6 C 6.9282 -3.4999 0.0 0
M  V30 7 C 3.4641 -1.4999 0.0 0
M  V30 8 C 4.1222 -2.9781 0.0 0
M  V30 9 C 4.3301 0.0 0.0 0
M  V30 10 C 6.9282 -4.5 0.0 0
M  V30 11 C 7.7942 -3.0 0.0 0
M  V30 12 C 3.4641 -0.5 0.0 0
M  V30 13 C 2.7209 -2.1691 0.0 0
M  V30 14 C 3.1276 -3.0826 0.0 0
M  V30 15 O 6.0621 -4.9999 0.0 0
M  V30 16 C 7.7942 -5.0 0.0 0
M  V30 17 C 8.6602 -3.5 0.0 0
M  V30 18 O 2.598 0.0 0.0 0
M  V30 19 C 5.1961 -4.4999 0.0 0
M  V30 20 C 8.6602 -4.5 0.0 0
M  V30 21 C 1.732 -0.5 0.0 0
M  V30 22 C 4.3301 -4.9999 0.0 0
M  V30 23 C 0.866 0.0 0.0 0
M  V30 24 C 3.4641 -4.4999 0.0 0
M  V30 25 C 4.3301 -5.9999 0.0 0
M  V30 26 O 0.866 1.0 0.0 0
M  V30 27 O 0.0 -0.5 0.0 0
M  V30 28 C 2.598 -4.9999 0.0 0
M  V30 29 C 3.4641 -6.4999 0.0 0
M  V30 30 C 2.598 -5.9999 0.0 0
M  V30 31 C 1.732 -6.4999 0.0 0
M  V30 32 F 2.232 -7.366 0.0 0
M  V30 33 F 0.866 -6.9999 0.0 0
M  V30 34 F 1.232 -5.6339 0.0 0
M  V30 END ATOM
M  V30 BEGIN BOND
M  V30 1 1 1 2
M  V30 2 1 1 3
M  V30 3 2 2 4
M  V30 4 1 2 5
M  V30 5 1 3 6
M  V30 6 1 4 7
M  V30 7 1 4 8
M  V30 8 2 5 9
M  V30 9 2 6 10
M  V30 10 1 6 11
M  V30 11 2 7 12
M  V30 12 1 7 13
M  V30 13 1 8 14
M  V30 14 1 10 15
M  V30 15 1 10 16
M  V30 16 2 11 17
M  V30 17 1 12 18
M  V30 18 1 15 19
M  V30 19 2 16 20
M  V30 20 1 18 21
M  V30 21 1 19 22
M  V30 22 1 21 23
M  V30 23 2 22 24
M  V30 24 1 22 25
M  V30 25 2 23 26
M  V30 26 1 23 27
M  V30 27 1 24 28
M  V30 28 2 25 29
M  V30 29 2 28 30
M  V30 30 1 30 31
M  V30 31 1 31 32
M  V30 32 1 31 33
M  V30 33 1 31 34
M  V30 34 1 9 12
M  V30 35 1 13 14
M  V30 36 1 17 20
M  V30 37 1 29 30
M  V30 END BOND
M  V30 END CTAB
M  END
>  <Molecule ChEMBL ID>
CHEMBL234665

>  <Smiles>
O=C(O)COc1ccc(SCc2ccccc2OCc2ccc(C(F)(F)F)cc2)c2c1CCC2

>  <IC50_nM>
10000

>  <Assay Description>
Displacement of [3H]5-(4-(3-(5-methyl-2-phenyloxazol-4-yl)propanoyl)benzyl)thiazolidine-2,4-dione from human PPARgamma after 2 hrs by SPA assay

$$$$
CHEMBL190645
Actelion Java MolfileCreator 2.0

  0  0  0  0  0  0              0 V3000
M  V30 BEGIN CTAB
M  V30 COUNTS 25 26 0 0 0
M  V30 BEGIN ATOM
M  V30 1 F 11.1109 -3.6765 0.0 0
M  V30 2 C 9.6843 -4.1401 0.0 0
M  V30 3 F 10.1478 -5.5666 0.0 0
M  V30 4 F 8.2577 -4.6036 0.0 0
M  V30 5 C 9.2208 -2.7135 0.0 0
M  V30 6 N 10.1024 -1.5 0.0 0
M  V30 7 C 7.7942 -2.2499 0.0 0
M  V30 8 O 9.2208 -0.2864 0.0 0
M  V30 9 C 7.7942 -0.75 0.0 0
M  V30 10 C 6.4951 -2.9999 0.0 0
M  V30 11 C 6.4951 0.0 0.0 0
M  V30 12 C 5.1961 -2.2499 0.0 0
M  V30 13 C 5.1961 -0.75 0.0 0
M  V30 14 C 6.4951 1.5 0.0 0
M  V30 15 C 3.8971 -2.9999 0.0 0
M  V30 16 O 3.8971 0.0 0.0 0
M  V30 17 C 7.7942 2.25 0.0 0
M  V30 18 C 2.598 -2.2499 0.0 0
M  V30 19 C 3.8971 1.4999 0.0 0 CFG=2
M  V30 20 C 7.7942 3.75 0.0 0
M  V30 21 C 1.299 -2.9999 0.0 0
M  V30 22 C 2.598 2.2499 0.0 0
M  V30 23 C 5.1961 2.2499 0.0 0
M  V30 24 O 1.299 1.4999 0.0 0
M  V30 25 O 2.598 3.75 0.0 0
M  V30 END ATOM
M  V30 BEGIN BOND
M  V30 1 1 1 2
M  V30 2 1 2 3
M  V30 3 1 2 4
M  V30 4 1 2 5
M  V30 5 2 5 6
M  V30 6 1 5 7
M  V30 7 1 6 8
M  V30 8 2 7 9
M  V30 9 1 7 10
M  V30 10 1 9 11
M  V30 11 2 10 12
M  V30 12 2 11 13
M  V30 13 1 11 14
M  V30 14 1 12 15
M  V30 15 1 13 16
M  V30 16 1 14 17
M  V30 17 1 15 18
M  V30 18 1 16 19
M  V30 19 1 17 20
M  V30 20 1 18 21
M  V30 21 1 19 22
M  V30 22 1 19 23 CFG=3
M  V30 23 2 22 24
M  V30 24 1 22 25
M  V30 25 1 8 9
M  V30 26 1 12 13
M  V30 END BOND
M  V30 BEGIN COLLECTION
M  V30 MDLV30/STERAC1 ATOMS=(1 19)
M  V30 END COLLECTION
M  V30 END CTAB
M  END
>  <Molecule ChEMBL ID>
CHEMBL190645

>  <Smiles>
CCCc1cc2c(C(F)(F)F)noc2c(CCC)c1OC(C)C(=O)O

>  <IC50_nM>
10000

>  <Assay Description>
Inhibition of human Peroxisome proliferator activated receptor gamma binding

$$$$
CHEMBL234801
Actelion Java MolfileCreator 2.0

  0  0  0  0  0  0              0 V3000
M  V30 BEGIN CTAB
M  V30 COUNTS 25 27 0 0 0
M  V30 BEGIN ATOM
M  V30 1 S 3.5116 -0.4067 0.0 0
M  V30 2 C 4.1807 0.3364 0.0 0
M  V30 3 C 2.598 0.0 0.0 0
M  V30 4 N 3.6807 1.2024 0.0 0
M  V30 5 C 5.1752 0.2318 0.0 0
M  V30 6 C 2.7026 0.9945 0.0 0
M  V30 7 C 1.732 -0.5 0.0 0
M  V30 8 F 5.2798 1.2264 0.0 0
M  V30 9 F 6.1697 0.1273 0.0 0
M  V30 10 F 5.0707 -0.7626 0.0 0
M  V30 11 C 1.9594 1.6636 0.0 0
M  V30 12 O 0.866 0.0 0.0 0
M  V30 13 C 0.0 -0.5 0.0 0
M  V30 14 C 0.0 -1.4999 0.0 0
M  V30 15 C -0.866 0.0 0.0 0
M  V30 16 C -0.866 -1.9999 0.0 0
M  V30 17 C -1.732 -0.4999 0.0 0
M  V30 18 C -1.732 -1.4999 0.0 0
M  V30 19 C -1.0739 -2.9781 0.0 0
M  V30 20 N -2.4751 -2.1691 0.0 0
M  V30 21 C -2.0684 -3.0826 0.0 0
M  V30 22 C -3.4533 -1.9612 0.0 0
M  V30 23 C -3.7623 -1.0101 0.0 0
M  V30 24 O -3.0932 -0.267 0.0 0
M  V30 25 O -4.7405 -0.8022 0.0 0
M  V30 END ATOM
M  V30 BEGIN BOND
M  V30 1 1 1 2
M  V30 2 1 1 3
M  V30 3 2 2 4
M  V30 4 1 2 5
M  V30 5 2 3 6
M  V30 6 1 3 7
M  V30 7 1 5 8
M  V30 8 1 5 9
M  V30 9 1 5 10
M  V30 10 1 6 11
M  V30 11 1 7 12
M  V30 12 1 12 13
M  V30 13 2 13 14
M  V30 14 1 13 15
M  V30 15 1 14 16
M  V30 16 2 15 17
M  V30 17 2 16 18
M  V30 18 1 16 19
M  V30 19 1 18 20
M  V30 20 2 19 21
M  V30 21 1 20 22
M  V30 22 1 22 23
M  V30 23 2 23 24
M  V30 24 1 23 25
M  V30 25 1 4 6
M  V30 26 1 17 18
M  V30 27 1 20 21
M  V30 END BOND
M  V30 END CTAB
M  END
>  <Molecule ChEMBL ID>
CHEMBL234801

>  <Smiles>
Cc1nc(C(F)(F)F)sc1COc1ccc2c(ccn2CC(=O)O)c1

>  <IC50_nM>
10000

>  <Assay Description>
Displacement of [3H]5-(4-(3-(5-methyl-2-phenyloxazol-4-yl)propanoyl)benzyl)thiazolidine-2,4-dione from human PPARgamma after 2 hrs by SPA

$$$$
CHEMBL3398434
Actelion Java MolfileCreator 2.0

  0  0  0  0  0  0              0 V3000
M  V30 BEGIN CTAB
M  V30 COUNTS 35 38 0 0 0
M  V30 BEGIN ATOM
M  V30 1 O 3.4641 -0.5 0.0 0
M  V30 2 C 2.598 0.0 0.0 0
M  V30 3 O 1.732 -0.5 0.0 0
M  V30 4 N 2.598 1.0 0.0 0
M  V30 5 C 0.866 0.0 0.0 0
M  V30 6 C 3.407 1.5877 0.0 0
M  V30 7 C 1.789 1.5877 0.0 0
M  V30 8 C 0.0 -0.5 0.0 0
M  V30 9 C 3.098 2.5388 0.0 0 CFG=2
M  V30 10 C 2.098 2.5388 0.0 0 CFG=1
M  V30 11 C 3.6858 3.3478 0.0 0
M  V30 12 C 1.5102 3.3478 0.0 0
M  V30 13 C 4.6803 3.2433 0.0 0
M  V30 14 C 3.2791 4.2614 0.0 0
M  V30 15 C 0.5157 3.2433 0.0 0
M  V30 16 C 5.2681 4.0523 0.0 0
M  V30 17 C 3.8669 5.0704 0.0 0
M  V30 18 O 0.109 2.3297 0.0 0
M  V30 19 O -0.072 4.0523 0.0 0
M  V30 20 C 4.8614 4.9658 0.0 0
M  V30 21 O 5.4492 5.7749 0.0 0
M  V30 22 C 5.0424 6.6884 0.0 0
M  V30 23 C 5.6302 7.4974 0.0 0
M  V30 24 C 5.2235 8.411 0.0 0
M  V30 25 N 5.7235 9.277 0.0 0
M  V30 26 C 4.2453 8.6189 0.0 0
M  V30 27 C 5.0543 10.0201 0.0 0
M  V30 28 O 4.1408 9.6134 0.0 0
M  V30 29 C 3.5022 7.9497 0.0 0
M  V30 30 C 5.2623 10.9983 0.0 0
M  V30 31 C 6.2133 11.3073 0.0 0
M  V30 32 C 4.5191 11.6674 0.0 0
M  V30 33 C 6.4212 12.2855 0.0 0
M  V30 34 C 4.727 12.6456 0.0 0
M  V30 35 C 5.6781 12.9546 0.0 0
M  V30 END ATOM
M  V30 BEGIN BOND
M  V30 1 2 1 2
M  V30 2 1 2 3
M  V30 3 1 2 4
M  V30 4 1 3 5
M  V30 5 1 4 6
M  V30 6 1 4 7
M  V30 7 1 5 8
M  V30 8 1 6 9
M  V30 9 1 7 10
M  V30 10 1 9 11 CFG=3
M  V30 11 1 10 12 CFG=3
M  V30 12 2 11 13
M  V30 13 1 11 14
M  V30 14 1 12 15
M  V30 15 1 13 16
M  V30 16 2 14 17
M  V30 17 2 15 18
M  V30 18 1 15 19
M  V30 19 2 16 20
M  V30 20 1 20 21
M  V30 21 1 21 22
M  V30 22 1 22 23
M  V30 23 1 23 24
M  V30 24 1 24 25
M  V30 25 2 24 26
M  V30 26 2 25 27
M  V30 27 1 26 28
M  V30 28 1 26 29
M  V30 29 1 27 30
M  V30 30 2 30 31
M  V30 31 1 30 32
M  V30 32 1 31 33
M  V30 33 2 32 34
M  V30 34 2 33 35
M  V30 35 1 9 10
M  V30 36 1 17 20
M  V30 37 1 27 28
M  V30 38 1 34 35
M  V30 END BOND
M  V30 BEGIN COLLECTION
M  V30 MDLV30/STEABS ATOMS=(2 9 10)
M  V30 END COLLECTION
M  V30 END CTAB
M  END
>  <Molecule ChEMBL ID>
CHEMBL3398434

>  <Smiles>
CCOC(=O)N1C[C@H](CC(=O)O)[C@H](c2ccc(OCCc3nc(-c4ccccc4)oc3C)cc2)C1

>  <IC50_nM>
10000

>  <Assay Description>
Binding affinity to PPARgamma (unknown origin) using fluorescein-tagged dual PPARalpha/gamma activator by homogeneous fluorescence polarization binding assay

$$$$
CHEMBL3398426
Actelion Java MolfileCreator 2.0

  0  0  0  0  0  0              0 V3000
M  V30 BEGIN CTAB
M  V30 COUNTS 34 37 0 0 0
M  V30 BEGIN ATOM
M  V30 1 O 3.4641 -0.5 0.0 0
M  V30 2 C 2.598 0.0 0.0 0
M  V30 3 O 1.732 -0.5 0.0 0
M  V30 4 N 2.598 1.0 0.0 0
M  V30 5 C 0.866 0.0 0.0 0
M  V30 6 C 3.407 1.5877 0.0 0
M  V30 7 C 1.789 1.5877 0.0 0
M  V30 8 C 0.0 -0.5 0.0 0
M  V30 9 C 3.098 2.5388 0.0 0 CFG=2
M  V30 10 C 2.098 2.5388 0.0 0 CFG=1
M  V30 11 C 3.6858 3.3478 0.0 0
M  V30 12 C 1.5102 3.3478 0.0 0
M  V30 13 C 4.6803 3.2433 0.0 0
M  V30 14 C 3.2791 4.2614 0.0 0
M  V30 15 O 1.917 4.2614 0.0 0
M  V30 16 O 0.5157 3.2433 0.0 0
M  V30 17 C 5.2681 4.0523 0.0 0
M  V30 18 C 3.8669 5.0704 0.0 0
M  V30 19 C 4.8614 4.9658 0.0 0
M  V30 20 O 5.4492 5.7749 0.0 0
M  V30 21 C 5.0424 6.6884 0.0 0
M  V30 22 C 5.6302 7.4974 0.0 0
M  V30 23 C 5.2235 8.411 0.0 0
M  V30 24 N 5.7235 9.277 0.0 0
M  V30 25 C 4.2453 8.6189 0.0 0
M  V30 26 C 5.0543 10.0201 0.0 0
M  V30 27 O 4.1408 9.6134 0.0 0
M  V30 28 C 3.5022 7.9497 0.0 0
M  V30 29 C 5.2623 10.9983 0.0 0
M  V30 30 C 6.2133 11.3073 0.0 0
M  V30 31 C 4.5191 11.6674 0.0 0
M  V30 32 C 6.4212 12.2855 0.0 0
M  V30 33 C 4.727 12.6456 0.0 0
M  V30 34 C 5.6781 12.9546 0.0 0
M  V30 END ATOM
M  V30 BEGIN BOND
M  V30 1 2 1 2
M  V30 2 1 2 3
M  V30 3 1 2 4
M  V30 4 1 3 5
M  V30 5 1 4 6
M  V30 6 1 4 7
M  V30 7 1 5 8
M  V30 8 1 6 9
M  V30 9 1 7 10
M  V30 10 1 9 11 CFG=3
M  V30 11 1 10 12 CFG=3
M  V30 12 2 11 13
M  V30 13 1 11 14
M  V30 14 2 12 15
M  V30 15 1 12 16
M  V30 16 1 13 17
M  V30 17 2 14 18
M  V30 18 2 17 19
M  V30 19 1 19 20
M  V30 20 1 20 21
M  V30 21 1 21 22
M  V30 22 1 22 23
M  V30 23 1 23 24
M  V30 24 2 23 25
M  V30 25 2 24 26
M  V30 26 1 25 27
M  V30 27 1 25 28
M  V30 28 1 26 29
M  V30 29 2 29 30
M  V30 30 1 29 31
M  V30 31 1 30 32
M  V30 32 2 31 33
M  V30 33 2 32 34
M  V30 34 1 9 10
M  V30 35 1 18 19
M  V30 36 1 26 27
M  V30 37 1 33 34
M  V30 END BOND
M  V30 BEGIN COLLECTION
M  V30 MDLV30/STEABS ATOMS=(2 9 10)
M  V30 END COLLECTION
M  V30 END CTAB
M  END
>  <Molecule ChEMBL ID>
CHEMBL3398426

>  <Smiles>
CCOC(=O)N1C[C@H](C(=O)O)[C@H](c2ccc(OCCc3nc(-c4ccccc4)oc3C)cc2)C1

>  <IC50_nM>
10000

>  <Assay Description>
Binding affinity to PPARgamma (unknown origin) using fluorescein-tagged dual PPARalpha/gamma activator by homogeneous fluorescence polarization binding assay

$$$$
CHEMBL231688
Actelion Java MolfileCreator 2.0

  0  0  0  0  0  0              0 V3000
M  V30 BEGIN CTAB
M  V30 COUNTS 33 36 0 0 0
M  V30 BEGIN ATOM
M  V30 1 F 4.6961 2.366 0.0 0
M  V30 2 C 5.1961 1.5 0.0 0
M  V30 3 F 6.0621 2.0 0.0 0
M  V30 4 F 5.6961 0.6339 0.0 0
M  V30 5 C 4.3301 1.0 0.0 0
M  V30 6 C 3.4641 1.5 0.0 0
M  V30 7 C 4.3301 0.0 0.0 0
M  V30 8 C 2.598 0.9999 0.0 0
M  V30 9 C 3.4641 -0.4999 0.0 0
M  V30 10 C 2.598 0.0 0.0 0
M  V30 11 O 1.732 -0.5 0.0 0
M  V30 12 C 0.866 0.0 0.0 0
M  V30 13 C 0.0 -0.5 0.0 0
M  V30 14 C -0.866 0.0 0.0 0
M  V30 15 C 0.0 -1.4999 0.0 0
M  V30 16 C -1.732 -0.4999 0.0 0
M  V30 17 C -0.866 1.0 0.0 0
M  V30 18 C -0.866 -1.9999 0.0 0
M  V30 19 C -1.732 -1.4999 0.0 0
M  V30 20 O 0.0 1.5 0.0 0
M  V30 21 C 0.0 2.5 0.0 0
M  V30 22 C -0.866 3.0 0.0 0
M  V30 23 C 0.866 2.9999 0.0 0
M  V30 24 C -0.866 4.0 0.0 0
M  V30 25 C 0.866 4.0 0.0 0
M  V30 26 C 0.0 4.5 0.0 0
M  V30 27 C -1.6091 4.6691 0.0 0
M  V30 28 N -0.2079 5.4781 0.0 0
M  V30 29 C -1.2024 5.5826 0.0 0
M  V30 30 C 0.4612 6.2212 0.0 0
M  V30 31 C 1.4393 6.0133 0.0 0
M  V30 32 O 1.7483 5.0623 0.0 0
M  V30 33 O 2.1084 6.7565 0.0 0
M  V30 END ATOM
M  V30 BEGIN BOND
M  V30 1 1 1 2
M  V30 2 1 2 3
M  V30 3 1 2 4
M  V30 4 1 2 5
M  V30 5 2 5 6
M  V30 6 1 5 7
M  V30 7 1 6 8
M  V30 8 2 7 9
M  V30 9 2 8 10
M  V30 10 1 10 11
M  V30 11 1 11 12
M  V30 12 1 12 13
M  V30 13 2 13 14
M  V30 14 1 13 15
M  V30 15 1 14 16
M  V30 16 1 14 17
M  V30 17 2 15 18
M  V30 18 2 16 19
M  V30 19 1 17 20
M  V30 20 1 20 21
M  V30 21 2 21 22
M  V30 22 1 21 23
M  V30 23 1 22 24
M  V30 24 2 23 25
M  V30 25 2 24 26
M  V30 26 1 24 27
M  V30 27 1 26 28
M  V30 28 2 27 29
M  V30 29 1 28 30
M  V30 30 1 30 31
M  V30 31 2 31 32
M  V30 32 1 31 33
M  V30 33 1 9 10
M  V30 34 1 18 19
M  V30 35 1 25 26
M  V30 36 1 28 29
M  V30 END BOND
M  V30 END CTAB
M  END
>  <Molecule ChEMBL ID>
CHEMBL231688

>  <Smiles>
O=C(O)Cn1ccc2cc(OCc3ccccc3COc3ccc(C(F)(F)F)cc3)ccc21

>  <IC50_nM>
10000

>  <Assay Description>
Displacement of [3H]5-(4-(3-(5-methyl-2-phenyloxazol-4-yl)propanoyl)benzyl)thiazolidine-2,4-dione from human PPARgamma after 2 hrs by SPA

$$$$
CHEMBL231690
Actelion Java MolfileCreator 2.0

  0  0  0  0  0  0              0 V3000
M  V30 BEGIN CTAB
M  V30 COUNTS 25 27 0 0 0
M  V30 BEGIN ATOM
M  V30 1 S 3.5116 -0.4067 0.0 0
M  V30 2 C 4.1807 0.3364 0.0 0
M  V30 3 C 2.598 0.0 0.0 0
M  V30 4 N 3.6807 1.2024 0.0 0
M  V30 5 C 5.1752 0.2318 0.0 0
M  V30 6 C 2.7026 0.9945 0.0 0
M  V30 7 C 1.732 -0.5 0.0 0
M  V30 8 F 5.2798 1.2264 0.0 0
M  V30 9 F 6.1697 0.1273 0.0 0
M  V30 10 F 5.0707 -0.7626 0.0 0
M  V30 11 C 1.9594 1.6636 0.0 0
M  V30 12 S 0.866 0.0 0.0 0
M  V30 13 C 0.0 -0.5 0.0 0
M  V30 14 C 0.0 -1.4999 0.0 0
M  V30 15 C -0.866 0.0 0.0 0
M  V30 16 C -0.866 -1.9999 0.0 0
M  V30 17 C -1.732 -0.4999 0.0 0
M  V30 18 C -1.732 -1.4999 0.0 0
M  V30 19 C -1.0739 -2.9781 0.0 0
M  V30 20 N -2.4751 -2.1691 0.0 0
M  V30 21 C -2.0684 -3.0826 0.0 0
M  V30 22 C -3.4533 -1.9612 0.0 0
M  V30 23 C -3.7623 -1.0101 0.0 0
M  V30 24 O -3.0932 -0.267 0.0 0
M  V30 25 O -4.7405 -0.8022 0.0 0
M  V30 END ATOM
M  V30 BEGIN BOND
M  V30 1 1 1 2
M  V30 2 1 1 3
M  V30 3 2 2 4
M  V30 4 1 2 5
M  V30 5 2 3 6
M  V30 6 1 3 7
M  V30 7 1 5 8
M  V30 8 1 5 9
M  V30 9 1 5 10
M  V30 10 1 6 11
M  V30 11 1 7 12
M  V30 12 1 12 13
M  V30 13 2 13 14
M  V30 14 1 13 15
M  V30 15 1 14 16
M  V30 16 2 15 17
M  V30 17 2 16 18
M  V30 18 1 16 19
M  V30 19 1 18 20
M  V30 20 2 19 21
M  V30 21 1 20 22
M  V30 22 1 22 23
M  V30 23 2 23 24
M  V30 24 1 23 25
M  V30 25 1 4 6
M  V30 26 1 17 18
M  V30 27 1 20 21
M  V30 END BOND
M  V30 END CTAB
M  END
>  <Molecule ChEMBL ID>
CHEMBL231690

>  <Smiles>
Cc1nc(C(F)(F)F)sc1CSc1ccc2c(ccn2CC(=O)O)c1

>  <IC50_nM>
10000

>  <Assay Description>
Displacement of [3H]5-(4-(3-(5-methyl-2-phenyloxazol-4-yl)propanoyl)benzyl)thiazolidine-2,4-dione from human PPARgamma after 2 hrs by SPA

$$$$
CHEMBL484465
Actelion Java MolfileCreator 2.0

  0  0  0  0  0  0              0 V3000
M  V30 BEGIN CTAB
M  V30 COUNTS 32 35 0 0 0
M  V30 BEGIN ATOM
M  V30 1 S 5.1961 3.75 0.0 0
M  V30 2 O 4.4461 5.049 0.0 0
M  V30 3 O 3.6961 3.7499 0.0 0
M  V30 4 N 6.4951 4.5 0.0 0
M  V30 5 C 5.1961 2.25 0.0 0
M  V30 6 C 7.7942 3.75 0.0 0
M  V30 7 C 6.4951 6.0 0.0 0
M  V30 8 C 3.8971 1.5 0.0 0
M  V30 9 C 6.4951 1.5 0.0 0
M  V30 10 C 9.0932 4.5 0.0 0
M  V30 11 C 7.7942 6.75 0.0 0
M  V30 12 C 3.8971 0.0 0.0 0
M  V30 13 C 6.4951 0.0 0.0 0
M  V30 14 C 9.0932 6.0 0.0 0
M  V30 15 C 10.3923 3.75 0.0 0
M  V30 16 C 2.598 -0.75 0.0 0
M  V30 17 C 5.1961 -0.75 0.0 0
M  V30 18 C 10.3923 6.75 0.0 0
M  V30 19 C 11.6913 4.5 0.0 0
M  V30 20 O 2.598 -2.25 0.0 0
M  V30 21 N 1.299 0.0 0.0 0
M  V30 22 C 11.6913 6.0 0.0 0
M  V30 23 C 0.0 -0.75 0.0 0
M  V30 24 C -1.299 0.0 0.0 0
M  V30 25 C 0.0 -2.25 0.0 0
M  V30 26 C -1.299 1.5 0.0 0
M  V30 27 C -2.598 -0.75 0.0 0
M  V30 28 C -1.299 -3.0 0.0 0
M  V30 29 C 1.299 -3.0 0.0 0
M  V30 30 O 0.0 2.25 0.0 0
M  V30 31 O -2.598 2.25 0.0 0
M  V30 32 C -2.598 -2.25 0.0 0
M  V30 END ATOM
M  V30 BEGIN BOND
M  V30 1 2 1 2
M  V30 2 2 1 3
M  V30 3 1 1 4
M  V30 4 1 1 5
M  V30 5 1 4 6
M  V30 6 1 4 7
M  V30 7 2 5 8
M  V30 8 1 5 9
M  V30 9 1 6 10
M  V30 10 1 7 11
M  V30 11 1 8 12
M  V30 12 2 9 13
M  V30 13 2 10 14
M  V30 14 1 10 15
M  V30 15 1 12 16
M  V30 16 2 12 17
M  V30 17 1 14 18
M  V30 18 2 15 19
M  V30 19 2 16 20
M  V30 20 1 16 21
M  V30 21 2 18 22
M  V30 22 1 21 23
M  V30 23 2 23 24
M  V30 24 1 23 25
M  V30 25 1 24 26
M  V30 26 1 24 27
M  V30 27 2 25 28
M  V30 28 1 25 29
M  V30 29 2 26 30
M  V30 30 1 26 31
M  V30 31 2 27 32
M  V30 32 1 11 14
M  V30 33 1 13 17
M  V30 34 1 19 22
M  V30 35 1 28 32
M  V30 END BOND
M  V30 END CTAB
M  END
>  <Molecule ChEMBL ID>
CHEMBL484465

>  <Smiles>
Cc1cccc(C(=O)O)c1NC(=O)c1cccc(S(=O)(=O)N2CCc3ccccc3C2)c1

>  <IC50_nM>
10000

>  <Assay Description>
Displacement of radiolabeled ligand from human PPARgamma by competition-binding assay

$$$$
CHEMBL611073
Actelion Java MolfileCreator 2.0

  0  0  0  0  0  0              0 V3000
M  V30 BEGIN CTAB
M  V30 COUNTS 26 27 0 0 0
M  V30 BEGIN ATOM
M  V30 1 Br 9.0932 -4.5 0.0 0
M  V30 2 C 9.0932 -3.0 0.0 0
M  V30 3 C 10.3923 -2.25 0.0 0
M  V30 4 C 7.7942 -2.25 0.0 0
M  V30 5 Cl 11.6913 -3.0 0.0 0
M  V30 6 C 10.3923 -0.75 0.0 0
M  V30 7 C 7.7942 -0.75 0.0 0
M  V30 8 C 9.0932 0.0 0.0 0
M  V30 9 C 6.4952 0.0 0.0 0
M  V30 10 O 6.4952 1.5 0.0 0
M  V30 11 N 5.1961 -0.75 0.0 0
M  V30 12 C 3.8971 0.0 0.0 0
M  V30 13 C 2.598 -0.75 0.0 0
M  V30 14 S 1.299 0.0 0.0 0
M  V30 15 O 2.049 1.299 0.0 0
M  V30 16 O 0.549 1.299 0.0 0
M  V30 17 C 0.0 -0.75 0.0 0
M  V30 18 N -1.299 0.0 0.0 0
M  V30 19 C 0.0 -2.25 0.0 0
M  V30 20 C -2.598 -0.75 0.0 0
M  V30 21 C -1.299 -3.0 0.0 0
M  V30 22 C -2.598 -2.25 0.0 0
M  V30 23 C -3.8971 -3.0 0.0 0
M  V30 24 F -3.1471 -4.299 0.0 0
M  V30 25 F -5.1961 -3.75 0.0 0
M  V30 26 F -4.6471 -1.7009 0.0 0
M  V30 END ATOM
M  V30 BEGIN BOND
M  V30 1 1 1 2
M  V30 2 2 2 3
M  V30 3 1 2 4
M  V30 4 1 3 5
M  V30 5 1 3 6
M  V30 6 2 4 7
M  V30 7 2 6 8
M  V30 8 1 7 9
M  V30 9 2 9 10
M  V30 10 1 9 11
M  V30 11 1 11 12
M  V30 12 1 12 13
M  V30 13 1 13 14
M  V30 14 2 14 15
M  V30 15 2 14 16
M  V30 16 1 14 17
M  V30 17 2 17 18
M  V30 18 1 17 19
M  V30 19 1 18 20
M  V30 20 2 19 21
M  V30 21 2 20 22
M  V30 22 1 22 23
M  V30 23 1 23 24
M  V30 24 1 23 25
M  V30 25 1 23 26
M  V30 26 1 7 8
M  V30 27 1 21 22
M  V30 END BOND
M  V30 END CTAB
M  END
>  <Molecule ChEMBL ID>
CHEMBL611073

>  <Smiles>
O=C(NCCS(=O)(=O)c1ccc(C(F)(F)F)cn1)c1ccc(Cl)c(Br)c1

>  <IC50_nM>
10000

>  <Assay Description>
Inhibition of human PPARgamma receptor by ligand displacement assay

$$$$
CHEMBL1760416
Actelion Java MolfileCreator 2.0

  0  0  0  0  0  0              0 V3000
M  V30 BEGIN CTAB
M  V30 COUNTS 40 42 0 0 0
M  V30 BEGIN ATOM
M  V30 1 Cl 11.6913 -7.5 0.0 0
M  V30 2 C 10.3923 -6.75 0.0 0
M  V30 3 C 10.3923 -5.25 0.0 0
M  V30 4 C 9.0932 -7.5 0.0 0
M  V30 5 C 9.0932 -4.5 0.0 0
M  V30 6 C 7.7942 -6.75 0.0 0
M  V30 7 C 7.7942 -5.25 0.0 0
M  V30 8 C 6.4951 -4.5 0.0 0
M  V30 9 C 6.4951 -3.0 0.0 0
M  V30 10 C 5.1961 -5.25 0.0 0
M  V30 11 C 5.1961 -2.25 0.0 0
M  V30 12 C 3.8971 -4.5 0.0 0
M  V30 13 N 5.1961 -0.75 0.0 0
M  V30 14 C 3.8971 -3.0 0.0 0
M  V30 15 S 6.4951 0.0 0.0 0
M  V30 16 C 3.8971 0.0 0.0 0
M  V30 17 O 2.598 -2.25 0.0 0
M  V30 18 O 7.9951 0.0 0.0 0
M  V30 19 O 7.2451 -1.299 0.0 0
M  V30 20 C 6.4951 1.5 0.0 0
M  V30 21 C 2.598 -0.75 0.0 0
M  V30 22 C 1.299 -3.0 0.0 0
M  V30 23 C 5.1961 2.25 0.0 0
M  V30 24 C 7.7942 2.25 0.0 0
M  V30 25 C 1.299 0.0 0.0 0
M  V30 26 F 2.049 -4.299 0.0 0
M  V30 27 F 0.0 -3.75 0.0 0
M  V30 28 F 0.549 -1.7009 0.0 0
M  V30 29 C 5.1961 3.75 0.0 0
M  V30 30 C 3.8971 1.5 0.0 0
M  V30 31 C 7.7942 3.75 0.0 0
M  V30 32 C 1.299 1.5 0.0 0
M  V30 33 C 6.4951 4.5 0.0 0
M  V30 34 C 3.8971 4.5 0.0 0
M  V30 35 O 6.4951 6.0 0.0 0
M  V30 36 C 7.7942 6.75 0.0 0 CFG=2
M  V30 37 C 7.7942 8.25 0.0 0
M  V30 38 C 9.0932 6.0 0.0 0
M  V30 39 O 6.4951 9.0 0.0 0
M  V30 40 O 9.0932 9.0 0.0 0
M  V30 END ATOM
M  V30 BEGIN BOND
M  V30 1 1 1 2
M  V30 2 2 2 3
M  V30 3 1 2 4
M  V30 4 1 3 5
M  V30 5 2 4 6
M  V30 6 2 5 7
M  V30 7 1 7 8
M  V30 8 2 8 9
M  V30 9 1 8 10
M  V30 10 1 9 11
M  V30 11 2 10 12
M  V30 12 1 11 13
M  V30 13 2 11 14
M  V30 14 1 13 15
M  V30 15 1 13 16
M  V30 16 1 14 17
M  V30 17 2 15 18
M  V30 18 2 15 19
M  V30 19 1 15 20
M  V30 20 1 16 21
M  V30 21 1 17 22
M  V30 22 2 20 23
M  V30 23 1 20 24
M  V30 24 1 21 25
M  V30 25 1 22 26
M  V30 26 1 22 27
M  V30 27 1 22 28
M  V30 28 1 23 29
M  V30 29 1 23 30
M  V30 30 2 24 31
M  V30 31 1 25 32
M  V30 32 2 29 33
M  V30 33 1 29 34
M  V30 34 1 33 35
M  V30 35 1 35 36
M  V30 36 1 36 37
M  V30 37 1 36 38 CFG=3
M  V30 38 2 37 39
M  V30 39 1 37 40
M  V30 40 1 6 7
M  V30 41 1 12 14
M  V30 42 1 31 33
M  V30 END BOND
M  V30 BEGIN COLLECTION
M  V30 MDLV30/STERAC1 ATOMS=(1 36)
M  V30 END COLLECTION
M  V30 END CTAB
M  END
>  <Molecule ChEMBL ID>
CHEMBL1760416

>  <Smiles>
CCCCN(c1cc(-c2ccc(Cl)cc2)ccc1OC(F)(F)F)S(=O)(=O)c1ccc(OC(C)C(=O)O)c(C)c1C

>  <IC50_nM>
10000

>  <Assay Description>
Displacement of [3H]GW 2433 from human PPARgamma by scintillation proximity assay

$$$$
CHEMBL234168
Actelion Java MolfileCreator 2.0

  0  0  0  0  0  0              0 V3000
M  V30 BEGIN CTAB
M  V30 COUNTS 30 33 0 0 0
M  V30 BEGIN ATOM
M  V30 1 F 8.2633 0.9128 0.0 0
M  V30 2 C 8.1588 -0.0817 0.0 0
M  V30 3 F 9.1533 -0.1862 0.0 0
M  V30 4 F 8.0543 -1.0762 0.0 0
M  V30 5 C 7.1643 0.0228 0.0 0
M  V30 6 C 6.7575 0.9363 0.0 0
M  V30 7 C 6.5765 -0.7861 0.0 0
M  V30 8 C 5.763 1.0408 0.0 0
M  V30 9 C 5.582 -0.6816 0.0 0
M  V30 10 C 5.1752 0.2318 0.0 0
M  V30 11 C 4.1807 0.3364 0.0 0
M  V30 12 O 3.6807 1.2024 0.0 0
M  V30 13 C 3.5116 -0.4067 0.0 0
M  V30 14 N 2.7026 0.9945 0.0 0
M  V30 15 C 2.598 0.0 0.0 0
M  V30 16 C 1.732 -0.5 0.0 0
M  V30 17 O 0.866 0.0 0.0 0
M  V30 18 C 0.0 -0.5 0.0 0
M  V30 19 C -0.866 0.0 0.0 0
M  V30 20 C 0.0 -1.5 0.0 0
M  V30 21 C -1.732 -0.4999 0.0 0
M  V30 22 C -0.866 -1.9999 0.0 0
M  V30 23 O -2.6831 -0.1909 0.0 0
M  V30 24 C -1.732 -1.4999 0.0 0
M  V30 25 C -3.2708 -0.9999 0.0 0
M  V30 26 C -2.6831 -1.809 0.0 0
M  V30 27 C -2.9921 -2.76 0.0 0
M  V30 28 C -3.9702 -2.9679 0.0 0
M  V30 29 O -4.6394 -2.2248 0.0 0
M  V30 30 O -4.2792 -3.919 0.0 0
M  V30 END ATOM
M  V30 BEGIN BOND
M  V30 1 1 1 2
M  V30 2 1 2 3
M  V30 3 1 2 4
M  V30 4 1 2 5
M  V30 5 2 5 6
M  V30 6 1 5 7
M  V30 7 1 6 8
M  V30 8 2 7 9
M  V30 9 2 8 10
M  V30 10 1 10 11
M  V30 11 1 11 12
M  V30 12 2 11 13
M  V30 13 1 12 14
M  V30 14 1 13 15
M  V30 15 1 15 16
M  V30 16 1 16 17
M  V30 17 1 17 18
M  V30 18 2 18 19
M  V30 19 1 18 20
M  V30 20 1 19 21
M  V30 21 2 20 22
M  V30 22 1 21 23
M  V30 23 2 21 24
M  V30 24 1 23 25
M  V30 25 1 24 26
M  V30 26 1 26 27
M  V30 27 1 27 28
M  V30 28 2 28 29
M  V30 29 1 28 30
M  V30 30 1 9 10
M  V30 31 2 14 15
M  V30 32 1 22 24
M  V30 33 2 25 26
M  V30 END BOND
M  V30 END CTAB
M  END
>  <Molecule ChEMBL ID>
CHEMBL234168

>  <Smiles>
O=C(O)Cc1coc2cc(OCc3cc(-c4ccc(C(F)(F)F)cc4)on3)ccc12

>  <IC50_nM>
10000

>  <Assay Description>
Displacement of [3H]5-(4-(3-(5-methyl-2-phenyloxazol-4-yl)propanoyl)benzyl)thiazolidine-2,4-dione from human PPARgamma after 2 hrs by SPA

$$$$
CHEMBL393373
Actelion Java MolfileCreator 2.0

  0  0  0  0  0  0              0 V3000
M  V30 BEGIN CTAB
M  V30 COUNTS 32 35 0 0 0
M  V30 BEGIN ATOM
M  V30 1 F 9.1602 0.366 0.0 0
M  V30 2 C 8.6602 -0.4999 0.0 0
M  V30 3 F 9.5262 -0.9999 0.0 0
M  V30 4 F 8.1602 -1.366 0.0 0
M  V30 5 C 7.7942 0.0 0.0 0
M  V30 6 C 7.7942 1.0 0.0 0
M  V30 7 C 6.9282 -0.4999 0.0 0
M  V30 8 C 6.9282 1.5 0.0 0
M  V30 9 C 6.0621 0.0 0.0 0
M  V30 10 C 6.0621 1.0 0.0 0
M  V30 11 O 5.1961 1.5 0.0 0
M  V30 12 C 4.3301 1.0 0.0 0
M  V30 13 C 3.4641 1.5 0.0 0
M  V30 14 C 4.3301 0.0 0.0 0
M  V30 15 C 2.598 0.9999 0.0 0
M  V30 16 C 3.4641 -0.4999 0.0 0
M  V30 17 C 2.598 0.0 0.0 0
M  V30 18 C 1.732 -0.5 0.0 0
M  V30 19 O 0.866 0.0 0.0 0
M  V30 20 C 0.0 -0.5 0.0 0
M  V30 21 C 0.0 -1.4999 0.0 0
M  V30 22 C -0.866 0.0 0.0 0
M  V30 23 C -0.866 -1.9999 0.0 0
M  V30 24 C -1.732 -0.4999 0.0 0
M  V30 25 C -1.732 -1.4999 0.0 0
M  V30 26 C -1.0739 -2.9781 0.0 0
M  V30 27 N -2.4751 -2.1691 0.0 0
M  V30 28 C -2.0684 -3.0826 0.0 0
M  V30 29 C -3.4533 -1.9612 0.0 0
M  V30 30 C -3.7623 -1.0101 0.0 0
M  V30 31 O -3.0932 -0.267 0.0 0
M  V30 32 O -4.7405 -0.8022 0.0 0
M  V30 END ATOM
M  V30 BEGIN BOND
M  V30 1 1 1 2
M  V30 2 1 2 3
M  V30 3 1 2 4
M  V30 4 1 2 5
M  V30 5 2 5 6
M  V30 6 1 5 7
M  V30 7 1 6 8
M  V30 8 2 7 9
M  V30 9 2 8 10
M  V30 10 1 10 11
M  V30 11 1 11 12
M  V30 12 2 12 13
M  V30 13 1 12 14
M  V30 14 1 13 15
M  V30 15 2 14 16
M  V30 16 2 15 17
M  V30 17 1 17 18
M  V30 18 1 18 19
M  V30 19 1 19 20
M  V30 20 2 20 21
M  V30 21 1 20 22
M  V30 22 1 21 23
M  V30 23 2 22 24
M  V30 24 2 23 25
M  V30 25 1 23 26
M  V30 26 1 25 27
M  V30 27 2 26 28
M  V30 28 1 27 29
M  V30 29 1 29 30
M  V30 30 2 30 31
M  V30 31 1 30 32
M  V30 32 1 9 10
M  V30 33 1 16 17
M  V30 34 1 24 25
M  V30 35 1 27 28
M  V30 END BOND
M  V30 END CTAB
M  END
>  <Molecule ChEMBL ID>
CHEMBL393373

>  <Smiles>
O=C(O)Cn1ccc2cc(OCc3ccc(Oc4ccc(C(F)(F)F)cc4)cc3)ccc21

>  <IC50_nM>
10000

>  <Assay Description>
Displacement of [3H]5-(4-(3-(5-methyl-2-phenyloxazol-4-yl)propanoyl)benzyl)thiazolidine-2,4-dione from human PPARgamma after 2 hrs by SPA

$$$$
CHEMBL234382
Actelion Java MolfileCreator 2.0

  0  0  0  0  0  0              0 V3000
M  V30 BEGIN CTAB
M  V30 COUNTS 31 34 0 0 0
M  V30 BEGIN ATOM
M  V30 1 S 4.1807 0.3364 0.0 0
M  V30 2 C 3.6807 1.2024 0.0 0
M  V30 3 C 3.5116 -0.4067 0.0 0
M  V30 4 C 2.7026 0.9945 0.0 0
M  V30 5 C 3.9897 2.1534 0.0 0
M  V30 6 C 2.598 0.0 0.0 0
M  V30 7 C 2.0334 1.7376 0.0 0
M  V30 8 C 3.3206 2.8966 0.0 0
M  V30 9 C 1.732 -0.5 0.0 0
M  V30 10 C 2.3424 2.6887 0.0 0
M  V30 11 C 1.0553 1.5297 0.0 0
M  V30 12 O 3.6296 3.8476 0.0 0
M  V30 13 C 1.732 -1.5 0.0 0
M  V30 14 C 4.6078 4.0556 0.0 0
M  V30 15 O 2.598 -2.0 0.0 0
M  V30 16 O 0.866 -2.0 0.0 0
M  V30 17 C 4.9168 5.0066 0.0 0
M  V30 18 N 5.8678 5.3156 0.0 0
M  V30 19 C 4.329 5.8156 0.0 0
M  V30 20 O 5.8678 6.3156 0.0 0
M  V30 21 C 4.9168 6.6246 0.0 0
M  V30 22 C 4.6078 7.5757 0.0 0
M  V30 23 C 5.2769 8.3188 0.0 0
M  V30 24 C 3.6296 7.7836 0.0 0
M  V30 25 C 4.9679 9.2699 0.0 0
M  V30 26 C 3.3206 8.7347 0.0 0
M  V30 27 C 3.9897 9.4778 0.0 0
M  V30 28 C 3.6807 10.4289 0.0 0
M  V30 29 F 2.7296 10.1199 0.0 0
M  V30 30 F 3.3717 11.3799 0.0 0
M  V30 31 F 4.6318 10.7379 0.0 0
M  V30 END ATOM
M  V30 BEGIN BOND
M  V30 1 1 1 2
M  V30 2 1 1 3
M  V30 3 2 2 4
M  V30 4 1 2 5
M  V30 5 2 3 6
M  V30 6 1 4 7
M  V30 7 2 5 8
M  V30 8 1 6 9
M  V30 9 2 7 10
M  V30 10 1 7 11
M  V30 11 1 8 12
M  V30 12 1 9 13
M  V30 13 1 12 14
M  V30 14 2 13 15
M  V30 15 1 13 16
M  V30 16 1 14 17
M  V30 17 2 17 18
M  V30 18 1 17 19
M  V30 19 1 18 20
M  V30 20 2 19 21
M  V30 21 1 21 22
M  V30 22 2 22 23
M  V30 23 1 22 24
M  V30 24 1 23 25
M  V30 25 2 24 26
M  V30 26 2 25 27
M  V30 27 1 27 28
M  V30 28 1 28 29
M  V30 29 1 28 30
M  V30 30 1 28 31
M  V30 31 1 4 6
M  V30 32 1 8 10
M  V30 33 1 20 21
M  V30 34 1 26 27
M  V30 END BOND
M  V30 END CTAB
M  END
>  <Molecule ChEMBL ID>
CHEMBL234382

>  <Smiles>
Cc1cc(OCc2cc(-c3ccc(C(F)(F)F)cc3)on2)cc2scc(CC(=O)O)c12

>  <IC50_nM>
10000

>  <Assay Description>
Displacement of [3H]5-(4-(3-(5-methyl-2-phenyloxazol-4-yl)propanoyl)benzyl)thiazolidine-2,4-dione from human PPARgamma after 2 hrs by SPA

$$$$
CHEMBL5420532
Actelion Java MolfileCreator 2.0

  0  0  0  0  0  0              0 V3000
M  V30 BEGIN CTAB
M  V30 COUNTS 34 38 0 0 0
M  V30 BEGIN ATOM
M  V30 1 Cl 5.4137 -1.0247 0.0 0
M  V30 2 C 4.6705 -1.6939 0.0 0
M  V30 3 C 3.7195 -1.3848 0.0 0
M  V30 4 C 4.8785 -2.672 0.0 0
M  V30 5 C 2.9763 -2.054 0.0 0
M  V30 6 C 3.5116 -0.4067 0.0 0
M  V30 7 C 4.1353 -3.3411 0.0 0
M  V30 8 Cl 2.0253 -1.7449 0.0 0
M  V30 9 C 3.1843 -3.0321 0.0 0
M  V30 10 N 4.1807 0.3364 0.0 0
M  V30 11 C 2.598 0.0 0.0 0
M  V30 12 O 3.6807 1.2024 0.0 0
M  V30 13 C 2.7026 0.9945 0.0 0
M  V30 14 C 1.732 -0.5 0.0 0
M  V30 15 C 1.9594 1.6636 0.0 0
M  V30 16 O 0.866 0.0 0.0 0
M  V30 17 C 1.6504 2.6147 0.0 0
M  V30 18 C 0.9813 1.8715 0.0 0
M  V30 19 C 0.0 -0.5 0.0 0
M  V30 20 C -0.866 0.0 0.0 0
M  V30 21 C 0.0 -1.4999 0.0 0
M  V30 22 C -1.732 -0.4999 0.0 0
M  V30 23 C -0.866 -1.9999 0.0 0
M  V30 24 C -1.732 -1.4999 0.0 0
M  V30 25 C -2.598 -1.9999 0.0 0
M  V30 26 C -3.4641 -1.4999 0.0 0
M  V30 27 C -2.598 -2.9999 0.0 0
M  V30 28 C -4.3301 -1.9999 0.0 0
M  V30 29 C -3.4641 -3.4999 0.0 0
M  V30 30 C -4.3301 -2.9999 0.0 0
M  V30 31 C -5.1961 -3.4999 0.0 0
M  V30 32 C -6.0621 -2.9999 0.0 0
M  V30 33 O -6.0621 -1.9999 0.0 0
M  V30 34 O -6.9282 -3.4999 0.0 0
M  V30 END ATOM
M  V30 BEGIN BOND
M  V30 1 1 1 2
M  V30 2 2 2 3
M  V30 3 1 2 4
M  V30 4 1 3 5
M  V30 5 1 3 6
M  V30 6 2 4 7
M  V30 7 1 5 8
M  V30 8 2 5 9
M  V30 9 2 6 10
M  V30 10 1 6 11
M  V30 11 1 10 12
M  V30 12 2 11 13
M  V30 13 1 11 14
M  V30 14 1 13 15
M  V30 15 1 14 16
M  V30 16 1 15 17
M  V30 17 1 15 18
M  V30 18 1 16 19
M  V30 19 2 19 20
M  V30 20 1 19 21
M  V30 21 1 20 22
M  V30 22 2 21 23
M  V30 23 2 22 24
M  V30 24 1 24 25
M  V30 25 2 25 26
M  V30 26 1 25 27
M  V30 27 1 26 28
M  V30 28 2 27 29
M  V30 29 2 28 30
M  V30 30 1 30 31
M  V30 31 1 31 32
M  V30 32 2 32 33
M  V30 33 1 32 34
M  V30 34 1 7 9
M  V30 35 1 12 13
M  V30 36 1 17 18
M  V30 37 1 23 24
M  V30 38 1 29 30
M  V30 END BOND
M  V30 END CTAB
M  END
>  <Molecule ChEMBL ID>
CHEMBL5420532

>  <Smiles>
O=C(O)Cc1ccc(-c2ccc(OCc3c(-c4c(Cl)cccc4Cl)noc3C3CC3)cc2)cc1

>  <IC50_nM>
10000

>  <Assay Description>
Inhibition of PPARgamma (unknown origin) transfected in HEK293 cells incubated for 18 hrs in presence of rosiglitazone by dual luciferase reporter assay

$$$$
CHEMBL5396467
Actelion Java MolfileCreator 2.0

  0  0  0  0  0  0              0 V3000
M  V30 BEGIN CTAB
M  V30 COUNTS 36 41 0 0 0
M  V30 BEGIN ATOM
M  V30 1 Cl 8.1246 -1.5379 0.0 0
M  V30 2 C 7.0094 -2.5421 0.0 0
M  V30 3 C 5.5821 -2.0783 0.0 0
M  V30 4 C 7.3214 -4.01 0.0 0
M  V30 5 C 4.4668 -3.0825 0.0 0
M  V30 6 C 5.27 -0.6104 0.0 0
M  V30 7 C 6.2061 -5.0142 0.0 0
M  V30 8 Cl 3.0395 -2.6188 0.0 0
M  V30 9 C 4.7788 -4.5505 0.0 0
M  V30 10 N 6.2742 0.5048 0.0 0
M  V30 11 C 3.899 0.0 0.0 0
M  V30 12 O 5.5239 1.8045 0.0 0
M  V30 13 C 4.0559 1.4925 0.0 0
M  V30 14 C 2.5993 -0.7503 0.0 0
M  V30 15 C 2.9406 2.4967 0.0 0
M  V30 16 O 1.2996 0.0 0.0 0
M  V30 17 C 2.4769 3.924 0.0 0
M  V30 18 C 1.4727 2.8087 0.0 0
M  V30 19 C 0.0 -0.7503 0.0 0
M  V30 20 C -1.2996 0.0 0.0 0
M  V30 21 C 0.0 -2.2511 0.0 0
M  V30 22 C -2.5993 -0.7503 0.0 0
M  V30 23 C -1.2996 -3.0015 0.0 0
M  V30 24 C -2.5993 -2.2511 0.0 0
M  V30 25 C -3.899 -3.0015 0.0 0
M  V30 26 C -5.1964 -2.2689 0.0 0
M  V30 27 C -3.899 -4.5022 0.0 0
M  V30 28 C -6.4984 -3.0015 0.0 0
M  V30 29 C -5.1987 -5.2526 0.0 0
M  V30 30 C -6.4984 -4.5022 0.0 0
M  V30 31 C -7.7981 -2.2511 0.0 0
M  V30 32 C -6.7369 -1.1899 0.0 0
M  V30 33 C -9.2477 -2.6395 0.0 0
M  V30 34 C -8.1865 -3.7007 0.0 0
M  V30 35 O -7.1253 0.2596 0.0 0
M  V30 36 O -5.292 -1.5427 0.0 0
M  V30 END ATOM
M  V30 BEGIN BOND
M  V30 1 1 1 2
M  V30 2 2 2 3
M  V30 3 1 2 4
M  V30 4 1 3 5
M  V30 5 1 3 6
M  V30 6 2 4 7
M  V30 7 1 5 8
M  V30 8 2 5 9
M  V30 9 2 6 10
M  V30 10 1 6 11
M  V30 11 1 10 12
M  V30 12 2 11 13
M  V30 13 1 11 14
M  V30 14 1 13 15
M  V30 15 1 14 16
M  V30 16 1 15 17
M  V30 17 1 15 18
M  V30 18 1 16 19
M  V30 19 2 19 20
M  V30 20 1 19 21
M  V30 21 1 20 22
M  V30 22 2 21 23
M  V30 23 2 22 24
M  V30 24 1 24 25
M  V30 25 2 25 26
M  V30 26 1 25 27
M  V30 27 1 26 28
M  V30 28 2 27 29
M  V30 29 2 28 30
M  V30 30 1 28 31
M  V30 31 1 31 32
M  V30 32 1 31 33
M  V30 33 1 31 34
M  V30 34 2 32 35
M  V30 35 1 32 36
M  V30 36 1 7 9
M  V30 37 1 12 13
M  V30 38 1 17 18
M  V30 39 1 23 24
M  V30 40 1 29 30
M  V30 41 1 33 34
M  V30 END BOND
M  V30 END CTAB
M  END
>  <Molecule ChEMBL ID>
CHEMBL5396467

>  <Smiles>
O=C(O)C1(c2cccc(-c3ccc(OCc4c(-c5c(Cl)cccc5Cl)noc4C4CC4)cc3)c2)CC1

>  <IC50_nM>
10000

>  <Assay Description>
Inhibition of PPARgamma (unknown origin) transfected in HEK293 cells incubated for 18 hrs in presence of rosiglitazone by dual luciferase reporter assay

$$$$
CHEMBL525552
Actelion Java MolfileCreator 2.0

  0  0  0  0  0  0              0 V3000
M  V30 BEGIN CTAB
M  V30 COUNTS 33 36 0 0 0
M  V30 BEGIN ATOM
M  V30 1 S 5.1961 3.75 0.0 0
M  V30 2 O 4.4461 5.049 0.0 0
M  V30 3 O 3.6961 3.7499 0.0 0
M  V30 4 N 6.4951 4.5 0.0 0
M  V30 5 C 5.1961 2.25 0.0 0
M  V30 6 C 7.8655 3.8898 0.0 0
M  V30 7 C 6.6519 5.9917 0.0 0
M  V30 8 C 3.8971 1.5 0.0 0
M  V30 9 C 6.4951 1.5 0.0 0
M  V30 10 C 8.8692 5.0046 0.0 0
M  V30 11 C 8.329 2.4633 0.0 0
M  V30 12 C 8.1192 6.3036 0.0 0
M  V30 13 C 3.8971 0.0 0.0 0
M  V30 14 C 6.4951 0.0 0.0 0
M  V30 15 C 10.3364 4.6927 0.0 0
M  V30 16 C 9.7962 2.1514 0.0 0
M  V30 17 C 2.598 -0.75 0.0 0
M  V30 18 C 5.1961 -0.75 0.0 0
M  V30 19 C 10.7999 3.2661 0.0 0
M  V30 20 O 2.598 -2.25 0.0 0
M  V30 21 N 1.299 0.0 0.0 0
M  V30 22 O 12.2671 2.9542 0.0 0
M  V30 23 C 0.0 -0.75 0.0 0
M  V30 24 C 13.2708 4.069 0.0 0
M  V30 25 C -1.299 0.0 0.0 0
M  V30 26 C 0.0 -2.25 0.0 0
M  V30 27 C -1.299 1.5 0.0 0
M  V30 28 C -2.598 -0.75 0.0 0
M  V30 29 C -1.299 -3.0 0.0 0
M  V30 30 O 0.0 2.25 0.0 0
M  V30 31 O -2.598 2.25 0.0 0
M  V30 32 C -2.598 -2.25 0.0 0
M  V30 33 C -3.8971 -3.0 0.0 0
M  V30 END ATOM
M  V30 BEGIN BOND
M  V30 1 2 1 2
M  V30 2 2 1 3
M  V30 3 1 1 4
M  V30 4 1 1 5
M  V30 5 1 4 6
M  V30 6 1 4 7
M  V30 7 2 5 8
M  V30 8 1 5 9
M  V30 9 2 6 10
M  V30 10 1 6 11
M  V30 11 2 7 12
M  V30 12 1 8 13
M  V30 13 2 9 14
M  V30 14 1 10 15
M  V30 15 2 11 16
M  V30 16 1 13 17
M  V30 17 2 13 18
M  V30 18 2 15 19
M  V30 19 2 17 20
M  V30 20 1 17 21
M  V30 21 1 19 22
M  V30 22 1 21 23
M  V30 23 1 22 24
M  V30 24 2 23 25
M  V30 25 1 23 26
M  V30 26 1 25 27
M  V30 27 1 25 28
M  V30 28 2 26 29
M  V30 29 2 27 30
M  V30 30 1 27 31
M  V30 31 2 28 32
M  V30 32 1 32 33
M  V30 33 1 10 12
M  V30 34 1 14 18
M  V30 35 1 16 19
M  V30 36 1 29 32
M  V30 END BOND
M  V30 END CTAB
M  END
>  <Molecule ChEMBL ID>
CHEMBL525552

>  <Smiles>
COc1ccc2c(ccn2S(=O)(=O)c2cccc(C(=O)Nc3ccc(C)cc3C(=O)O)c2)c1

>  <IC50_nM>
10000

>  <Assay Description>
Displacement of radiolabeled ligand from human PPARgamma by competition-binding assay

$$$$
CHEMBL2331779
Actelion Java MolfileCreator 2.0

  0  0  0  0  0  0              0 V3000
M  V30 BEGIN CTAB
M  V30 COUNTS 33 35 0 0 0
M  V30 BEGIN ATOM
M  V30 1 Cl 11.6913 1.5 0.0 0
M  V30 2 C 10.3923 2.25 0.0 0
M  V30 3 C 10.3923 3.75 0.0 0
M  V30 4 C 9.0932 1.5 0.0 0
M  V30 5 N 9.0932 4.5 0.0 0
M  V30 6 C 7.7942 2.25 0.0 0
M  V30 7 C 7.7942 3.75 0.0 0
M  V30 8 O 6.4951 1.5 0.0 0
M  V30 9 C 6.4951 0.0 0.0 0
M  V30 10 C 5.1961 -0.75 0.0 0
M  V30 11 C 7.7942 -0.75 0.0 0
M  V30 12 C 3.8971 0.0 0.0 0
M  V30 13 C 5.1961 -2.25 0.0 0
M  V30 14 C 7.7942 -2.25 0.0 0
M  V30 15 O 3.8971 1.5 0.0 0
M  V30 16 N 2.598 -0.75 0.0 0
M  V30 17 C 6.4951 -3.0 0.0 0
M  V30 18 C 1.299 0.0 0.0 0
M  V30 19 N 6.4951 -4.5 0.0 0
M  V30 20 C 0.0 -0.75 0.0 0
M  V30 21 S 5.1961 -5.25 0.0 0
M  V30 22 O 4.4461 -3.9509 0.0 0
M  V30 23 O 3.6961 -5.25 0.0 0
M  V30 24 C 5.1961 -6.75 0.0 0
M  V30 25 C 3.8971 -7.5 0.0 0
M  V30 26 C 6.4951 -7.5 0.0 0
M  V30 27 C 3.8971 -9.0 0.0 0
M  V30 28 C 6.4951 -9.0 0.0 0
M  V30 29 C 5.1961 -9.75 0.0 0
M  V30 30 C 5.1961 -11.25 0.0 0
M  V30 31 C 6.6961 -11.25 0.0 0
M  V30 32 C 5.1961 -12.75 0.0 0
M  V30 33 C 3.6961 -11.25 0.0 0
M  V30 END ATOM
M  V30 BEGIN BOND
M  V30 1 1 1 2
M  V30 2 2 2 3
M  V30 3 1 2 4
M  V30 4 1 3 5
M  V30 5 2 4 6
M  V30 6 2 5 7
M  V30 7 1 6 8
M  V30 8 1 8 9
M  V30 9 2 9 10
M  V30 10 1 9 11
M  V30 11 1 10 12
M  V30 12 1 10 13
M  V30 13 2 11 14
M  V30 14 2 12 15
M  V30 15 1 12 16
M  V30 16 2 13 17
M  V30 17 1 16 18
M  V30 18 1 17 19
M  V30 19 1 18 20
M  V30 20 1 19 21
M  V30 21 2 21 22
M  V30 22 2 21 23
M  V30 23 1 21 24
M  V30 24 2 24 25
M  V30 25 1 24 26
M  V30 26 1 25 27
M  V30 27 2 26 28
M  V30 28 2 27 29
M  V30 29 1 29 30
M  V30 30 1 30 31
M  V30 31 1 30 32
M  V30 32 1 30 33
M  V30 33 1 6 7
M  V30 34 1 14 17
M  V30 35 1 28 29
M  V30 END BOND
M  V30 END CTAB
M  END
>  <Molecule ChEMBL ID>
CHEMBL2331779

>  <Smiles>
CCNC(=O)c1cc(NS(=O)(=O)c2ccc(C(C)(C)C)cc2)ccc1Oc1cncc(Cl)c1

>  <IC50_nM>
10000

>  <Assay Description>
Displacement of [3H]-rosiglitazone from GST-tagged PPARgammaLBD (unknown origin) after 1 hr by scintillation proximity assay

$$$$
CHEMBL598156
Actelion Java MolfileCreator 2.0

  0  0  0  0  0  0              0 V3000
M  V30 BEGIN CTAB
M  V30 COUNTS 26 27 0 0 0
M  V30 BEGIN ATOM
M  V30 1 Cl 9.0932 1.5 0.0 0
M  V30 2 C 9.0932 0.0 0.0 0
M  V30 3 C 7.7942 -0.75 0.0 0
M  V30 4 C 10.3923 -0.75 0.0 0
M  V30 5 C 6.4952 0.0 0.0 0
M  V30 6 C 7.7942 -2.25 0.0 0
M  V30 7 C 10.3923 -2.25 0.0 0
M  V30 8 O 6.4952 1.5 0.0 0
M  V30 9 N 5.1961 -0.75 0.0 0
M  V30 10 C 9.0932 -3.0 0.0 0
M  V30 11 Cl 11.6913 -3.0 0.0 0
M  V30 12 C 3.8971 0.0 0.0 0
M  V30 13 C 2.598 -0.75 0.0 0
M  V30 14 S 1.299 0.0 0.0 0
M  V30 15 O 2.049 1.299 0.0 0
M  V30 16 O 0.549 1.299 0.0 0
M  V30 17 C 0.0 -0.75 0.0 0
M  V30 18 N -1.299 0.0 0.0 0
M  V30 19 C 0.0 -2.25 0.0 0
M  V30 20 C -2.598 -0.75 0.0 0
M  V30 21 C -1.299 -3.0 0.0 0
M  V30 22 C -2.598 -2.25 0.0 0
M  V30 23 C -3.8971 -3.0 0.0 0
M  V30 24 F -3.1471 -4.299 0.0 0
M  V30 25 F -5.1961 -3.75 0.0 0
M  V30 26 F -4.6471 -1.7009 0.0 0
M  V30 END ATOM
M  V30 BEGIN BOND
M  V30 1 1 1 2
M  V30 2 2 2 3
M  V30 3 1 2 4
M  V30 4 1 3 5
M  V30 5 1 3 6
M  V30 6 2 4 7
M  V30 7 2 5 8
M  V30 8 1 5 9
M  V30 9 2 6 10
M  V30 10 1 7 11
M  V30 11 1 9 12
M  V30 12 1 12 13
M  V30 13 1 13 14
M  V30 14 2 14 15
M  V30 15 2 14 16
M  V30 16 1 14 17
M  V30 17 2 17 18
M  V30 18 1 17 19
M  V30 19 1 18 20
M  V30 20 2 19 21
M  V30 21 2 20 22
M  V30 22 1 22 23
M  V30 23 1 23 24
M  V30 24 1 23 25
M  V30 25 1 23 26
M  V30 26 1 7 10
M  V30 27 1 21 22
M  V30 END BOND
M  V30 END CTAB
M  END
>  <Molecule ChEMBL ID>
CHEMBL598156

>  <Smiles>
O=C(NCCS(=O)(=O)c1ccc(C(F)(F)F)cn1)c1ccc(Cl)cc1Cl

>  <IC50_nM>
10000

>  <Assay Description>
Inhibition of human PPARgamma receptor by ligand displacement assay

$$$$
CHEMBL2331770
Actelion Java MolfileCreator 2.0

  0  0  0  0  0  0              0 V3000
M  V30 BEGIN CTAB
M  V30 COUNTS 29 31 0 0 0
M  V30 BEGIN ATOM
M  V30 1 Cl 2.598 2.25 0.0 0
M  V30 2 C 3.8971 1.5 0.0 0
M  V30 3 C 3.8971 0.0 0.0 0
M  V30 4 C 5.1961 2.25 0.0 0
M  V30 5 S 2.598 -0.75 0.0 0
M  V30 6 C 5.1961 -0.75 0.0 0
M  V30 7 C 6.4951 1.5 0.0 0
M  V30 8 O 1.848 -2.049 0.0 0
M  V30 9 O 3.348 -2.049 0.0 0
M  V30 10 N 1.299 0.0 0.0 0
M  V30 11 C 6.4951 0.0 0.0 0
M  V30 12 Cl 7.7942 2.25 0.0 0
M  V30 13 C 0.0 -0.75 0.0 0
M  V30 14 C -1.299 0.0 0.0 0
M  V30 15 C 0.0 -2.25 0.0 0
M  V30 16 C -2.598 -0.75 0.0 0
M  V30 17 C -1.299 -3.0 0.0 0
M  V30 18 C -2.598 -2.25 0.0 0
M  V30 19 C -3.8971 0.0 0.0 0
M  V30 20 O -3.8971 -3.0 0.0 0
M  V30 21 O -3.8971 1.5 0.0 0
M  V30 22 O -5.1961 -0.75 0.0 0
M  V30 23 C -3.8971 -4.5 0.0 0
M  V30 24 C -5.1961 -5.25 0.0 0
M  V30 25 C -2.598 -5.25 0.0 0
M  V30 26 N -5.1961 -6.75 0.0 0
M  V30 27 C -2.598 -6.75 0.0 0
M  V30 28 C -3.8971 -7.5 0.0 0
M  V30 29 Cl -1.299 -7.5 0.0 0
M  V30 END ATOM
M  V30 BEGIN BOND
M  V30 1 1 1 2
M  V30 2 2 2 3
M  V30 3 1 2 4
M  V30 4 1 3 5
M  V30 5 1 3 6
M  V30 6 2 4 7
M  V30 7 2 5 8
M  V30 8 2 5 9
M  V30 9 1 5 10
M  V30 10 2 6 11
M  V30 11 1 7 12
M  V30 12 1 10 13
M  V30 13 2 13 14
M  V30 14 1 13 15
M  V30 15 1 14 16
M  V30 16 2 15 17
M  V30 17 2 16 18
M  V30 18 1 16 19
M  V30 19 1 18 20
M  V30 20 2 19 21
M  V30 21 1 19 22
M  V30 22 1 20 23
M  V30 23 2 23 24
M  V30 24 1 23 25
M  V30 25 1 24 26
M  V30 26 2 25 27
M  V30 27 2 26 28
M  V30 28 1 27 29
M  V30 29 1 7 11
M  V30 30 1 17 18
M  V30 31 1 27 28
M  V30 END BOND
M  V30 END CTAB
M  END
>  <Molecule ChEMBL ID>
CHEMBL2331770

>  <Smiles>
O=C(O)c1cc(NS(=O)(=O)c2ccc(Cl)cc2Cl)ccc1Oc1cncc(Cl)c1

>  <IC50_nM>
10000

>  <Assay Description>
Displacement of [3H]-rosiglitazone from GST-tagged PPARgammaLBD (unknown origin) after 1 hr by scintillation proximity assay

$$$$
CHEMBL2331780
Actelion Java MolfileCreator 2.0

  0  0  0  0  0  0              0 V3000
M  V30 BEGIN CTAB
M  V30 COUNTS 33 35 0 0 0
M  V30 BEGIN ATOM
M  V30 1 Cl 11.6913 1.5 0.0 0
M  V30 2 C 10.3923 2.25 0.0 0
M  V30 3 C 10.3923 3.75 0.0 0
M  V30 4 C 9.0932 1.5 0.0 0
M  V30 5 N 9.0932 4.5 0.0 0
M  V30 6 C 7.7942 2.25 0.0 0
M  V30 7 C 7.7942 3.75 0.0 0
M  V30 8 O 6.4951 1.5 0.0 0
M  V30 9 C 6.4951 0.0 0.0 0
M  V30 10 C 5.1961 -0.75 0.0 0
M  V30 11 C 7.7942 -0.75 0.0 0
M  V30 12 C 3.8971 0.0 0.0 0
M  V30 13 C 5.1961 -2.25 0.0 0
M  V30 14 C 7.7942 -2.25 0.0 0
M  V30 15 O 3.8971 1.5 0.0 0
M  V30 16 N 2.598 -0.75 0.0 0
M  V30 17 C 6.4951 -3.0 0.0 0
M  V30 18 C 1.299 0.0 0.0 0
M  V30 19 N 6.4951 -4.5 0.0 0
M  V30 20 C 0.0 -0.75 0.0 0
M  V30 21 S 5.1961 -5.25 0.0 0
M  V30 22 O 4.4461 -3.9509 0.0 0
M  V30 23 O 3.6961 -5.25 0.0 0
M  V30 24 C 5.1961 -6.75 0.0 0
M  V30 25 C 3.8971 -7.5 0.0 0
M  V30 26 C 6.4951 -7.5 0.0 0
M  V30 27 C 3.8971 -9.0 0.0 0
M  V30 28 C 6.4951 -9.0 0.0 0
M  V30 29 C 5.1961 -9.75 0.0 0
M  V30 30 S 5.1961 -11.25 0.0 0
M  V30 31 O 3.6961 -11.25 0.0 0
M  V30 32 O 6.6961 -11.25 0.0 0
M  V30 33 C 5.1961 -12.75 0.0 0
M  V30 END ATOM
M  V30 BEGIN BOND
M  V30 1 1 1 2
M  V30 2 2 2 3
M  V30 3 1 2 4
M  V30 4 1 3 5
M  V30 5 2 4 6
M  V30 6 2 5 7
M  V30 7 1 6 8
M  V30 8 1 8 9
M  V30 9 2 9 10
M  V30 10 1 9 11
M  V30 11 1 10 12
M  V30 12 1 10 13
M  V30 13 2 11 14
M  V30 14 2 12 15
M  V30 15 1 12 16
M  V30 16 2 13 17
M  V30 17 1 16 18
M  V30 18 1 17 19
M  V30 19 1 18 20
M  V30 20 1 19 21
M  V30 21 2 21 22
M  V30 22 2 21 23
M  V30 23 1 21 24
M  V30 24 2 24 25
M  V30 25 1 24 26
M  V30 26 1 25 27
M  V30 27 2 26 28
M  V30 28 2 27 29
M  V30 29 1 29 30
M  V30 30 2 30 31
M  V30 31 2 30 32
M  V30 32 1 30 33
M  V30 33 1 6 7
M  V30 34 1 14 17
M  V30 35 1 28 29
M  V30 END BOND
M  V30 END CTAB
M  END
>  <Molecule ChEMBL ID>
CHEMBL2331780

>  <Smiles>
CCNC(=O)c1cc(NS(=O)(=O)c2ccc(S(C)(=O)=O)cc2)ccc1Oc1cncc(Cl)c1

>  <IC50_nM>
10000

>  <Assay Description>
Displacement of [3H]-rosiglitazone from GST-tagged PPARgammaLBD (unknown origin) after 1 hr by scintillation proximity assay

$$$$
CHEMBL233976
Actelion Java MolfileCreator 2.0

  0  0  0  0  0  0              0 V3000
M  V30 BEGIN CTAB
M  V30 COUNTS 31 34 0 0 0
M  V30 BEGIN ATOM
M  V30 1 S 3.5116 -0.4067 0.0 0
M  V30 2 C 4.1807 0.3364 0.0 0
M  V30 3 C 2.598 0.0 0.0 0
M  V30 4 N 3.6807 1.2024 0.0 0
M  V30 5 C 5.1752 0.2318 0.0 0
M  V30 6 C 2.7026 0.9945 0.0 0
M  V30 7 C 1.732 -0.5 0.0 0
M  V30 8 C 5.582 -0.6816 0.0 0
M  V30 9 C 5.763 1.0408 0.0 0
M  V30 10 C 1.9594 1.6636 0.0 0
M  V30 11 O 0.866 0.0 0.0 0
M  V30 12 C 6.5765 -0.7861 0.0 0
M  V30 13 C 6.7575 0.9363 0.0 0
M  V30 14 C 0.0 -0.5 0.0 0
M  V30 15 C 7.1643 0.0228 0.0 0
M  V30 16 C -0.866 0.0 0.0 0
M  V30 17 C 0.0 -1.5 0.0 0
M  V30 18 C 8.1588 -0.0817 0.0 0
M  V30 19 C -1.732 -0.4999 0.0 0
M  V30 20 C -0.866 -1.9999 0.0 0
M  V30 21 F 8.2633 0.9128 0.0 0
M  V30 22 F 9.1533 -0.1862 0.0 0
M  V30 23 F 8.0543 -1.0762 0.0 0
M  V30 24 S -2.6831 -0.1909 0.0 0
M  V30 25 C -1.732 -1.4999 0.0 0
M  V30 26 C -3.2708 -0.9999 0.0 0
M  V30 27 C -2.6831 -1.809 0.0 0
M  V30 28 C -2.9921 -2.76 0.0 0
M  V30 29 C -3.9702 -2.9679 0.0 0
M  V30 30 O -4.6394 -2.2248 0.0 0
M  V30 31 O -4.2792 -3.919 0.0 0
M  V30 END ATOM
M  V30 BEGIN BOND
M  V30 1 1 1 2
M  V30 2 1 1 3
M  V30 3 2 2 4
M  V30 4 1 2 5
M  V30 5 2 3 6
M  V30 6 1 3 7
M  V30 7 2 5 8
M  V30 8 1 5 9
M  V30 9 1 6 10
M  V30 10 1 7 11
M  V30 11 1 8 12
M  V30 12 2 9 13
M  V30 13 1 11 14
M  V30 14 2 12 15
M  V30 15 2 14 16
M  V30 16 1 14 17
M  V30 17 1 15 18
M  V30 18 1 16 19
M  V30 19 2 17 20
M  V30 20 1 18 21
M  V30 21 1 18 22
M  V30 22 1 18 23
M  V30 23 1 19 24
M  V30 24 2 19 25
M  V30 25 1 24 26
M  V30 26 1 25 27
M  V30 27 1 27 28
M  V30 28 1 28 29
M  V30 29 2 29 30
M  V30 30 1 29 31
M  V30 31 1 4 6
M  V30 32 1 13 15
M  V30 33 1 20 25
M  V30 34 2 26 27
M  V30 END BOND
M  V30 END CTAB
M  END
>  <Molecule ChEMBL ID>
CHEMBL233976

>  <Smiles>
Cc1nc(-c2ccc(C(F)(F)F)cc2)sc1COc1ccc2c(CC(=O)O)csc2c1

>  <IC50_nM>
10000

>  <Assay Description>
Displacement of [3H]5-(4-(3-(5-methyl-2-phenyloxazol-4-yl)propanoyl)benzyl)thiazolidine-2,4-dione from human PPARgamma after 2 hrs by SPA

$$$$
CHEMBL393767
Actelion Java MolfileCreator 2.0

  0  0  0  0  0  0              0 V3000
M  V30 BEGIN CTAB
M  V30 COUNTS 30 33 0 0 0
M  V30 BEGIN ATOM
M  V30 1 F 8.2633 0.9128 0.0 0
M  V30 2 C 8.1588 -0.0817 0.0 0
M  V30 3 F 9.1533 -0.1862 0.0 0
M  V30 4 F 8.0543 -1.0762 0.0 0
M  V30 5 C 7.1643 0.0228 0.0 0
M  V30 6 C 6.7575 0.9363 0.0 0
M  V30 7 C 6.5765 -0.7861 0.0 0
M  V30 8 C 5.763 1.0408 0.0 0
M  V30 9 C 5.582 -0.6816 0.0 0
M  V30 10 C 5.1752 0.2318 0.0 0
M  V30 11 C 4.1807 0.3364 0.0 0
M  V30 12 O 3.6807 1.2024 0.0 0
M  V30 13 C 3.5116 -0.4067 0.0 0
M  V30 14 N 2.7026 0.9945 0.0 0
M  V30 15 C 2.598 0.0 0.0 0
M  V30 16 C 1.732 -0.5 0.0 0
M  V30 17 O 0.866 0.0 0.0 0
M  V30 18 C 0.0 -0.5 0.0 0
M  V30 19 C 0.0 -1.4999 0.0 0
M  V30 20 C -0.866 0.0 0.0 0
M  V30 21 C -0.866 -1.9999 0.0 0
M  V30 22 C -1.732 -0.4999 0.0 0
M  V30 23 C -1.732 -1.4999 0.0 0
M  V30 24 C -1.0739 -2.9781 0.0 0
M  V30 25 N -2.4751 -2.1691 0.0 0
M  V30 26 C -2.0684 -3.0826 0.0 0
M  V30 27 C -3.4533 -1.9612 0.0 0
M  V30 28 C -3.7623 -1.0101 0.0 0
M  V30 29 O -3.0932 -0.267 0.0 0
M  V30 30 O -4.7405 -0.8022 0.0 0
M  V30 END ATOM
M  V30 BEGIN BOND
M  V30 1 1 1 2
M  V30 2 1 2 3
M  V30 3 1 2 4
M  V30 4 1 2 5
M  V30 5 2 5 6
M  V30 6 1 5 7
M  V30 7 1 6 8
M  V30 8 2 7 9
M  V30 9 2 8 10
M  V30 10 1 10 11
M  V30 11 1 11 12
M  V30 12 2 11 13
M  V30 13 1 12 14
M  V30 14 1 13 15
M  V30 15 1 15 16
M  V30 16 1 16 17
M  V30 17 1 17 18
M  V30 18 2 18 19
M  V30 19 1 18 20
M  V30 20 1 19 21
M  V30 21 2 20 22
M  V30 22 2 21 23
M  V30 23 1 21 24
M  V30 24 1 23 25
M  V30 25 2 24 26
M  V30 26 1 25 27
M  V30 27 1 27 28
M  V30 28 2 28 29
M  V30 29 1 28 30
M  V30 30 1 9 10
M  V30 31 2 14 15
M  V30 32 1 22 23
M  V30 33 1 25 26
M  V30 END BOND
M  V30 END CTAB
M  END
>  <Molecule ChEMBL ID>
CHEMBL393767

>  <Smiles>
O=C(O)Cn1ccc2cc(OCc3cc(-c4ccc(C(F)(F)F)cc4)on3)ccc21

>  <IC50_nM>
10000

>  <Assay Description>
Displacement of [3H]5-(4-(3-(5-methyl-2-phenyloxazol-4-yl)propanoyl)benzyl)thiazolidine-2,4-dione from human PPARgamma after 2 hrs by SPA

$$$$
CHEMBL4513808
Actelion Java MolfileCreator 2.0

  0  0  0  0  0  0              0 V3000
M  V30 BEGIN CTAB
M  V30 COUNTS 34 39 0 0 0
M  V30 BEGIN ATOM
M  V30 1 Cl 6.2872 -5.8853 0.0 0
M  V30 2 C 7.5893 -5.1335 0.0 0
M  V30 3 C 8.8915 -5.8853 0.0 0
M  V30 4 C 7.5893 -3.6299 0.0 0
M  V30 5 N 8.8915 -7.3888 0.0 0
M  V30 6 C 10.1936 -5.1335 0.0 0
M  V30 7 N 6.2872 -2.8781 0.0 0
M  V30 8 C 8.8915 -2.8781 0.0 0
M  V30 9 C 7.6751 -8.2726 0.0 0
M  V30 10 C 10.1079 -8.2726 0.0 0
M  V30 11 Cl 11.4957 -5.8853 0.0 0
M  V30 12 C 10.1936 -3.6299 0.0 0
M  V30 13 C 5.8981 -1.4258 0.0 0
M  V30 14 C 4.8349 -3.2673 0.0 0
M  V30 15 N 8.1142 -9.6772 0.0 0
M  V30 16 C 6.2451 -7.808 0.0 0
M  V30 17 C 9.6433 -9.7026 0.0 0
M  V30 18 C 11.5379 -7.808 0.0 0
M  V30 19 C 4.4457 -1.8149 0.0 0
M  V30 20 C 5.239 -6.6906 0.0 0
M  V30 21 C 4.7744 -8.1206 0.0 0
M  V30 22 C 10.527 -10.919 0.0 0
M  V30 23 C 4.0566 -0.3626 0.0 0
M  V30 24 C 2.9934 -2.2041 0.0 0
M  V30 25 C 9.1233 -11.4578 0.0 0
M  V30 26 C 11.9006 -11.5306 0.0 0
M  V30 27 C 10.6842 -12.4144 0.0 0
M  V30 28 C 2.6042 -0.7517 0.0 0
M  V30 29 F 8.6208 -10.1829 0.0 0
M  V30 30 F 7.7196 -11.9967 0.0 0
M  V30 31 F 9.6622 -12.8616 0.0 0
M  V30 32 C 1.3021 0.0 0.0 0
M  V30 33 O 1.3021 1.5035 0.0 0
M  V30 34 O 0.0 -0.7517 0.0 0
M  V30 END ATOM
M  V30 BEGIN BOND
M  V30 1 1 1 2
M  V30 2 2 2 3
M  V30 3 1 2 4
M  V30 4 1 3 5
M  V30 5 1 3 6
M  V30 6 1 4 7
M  V30 7 2 4 8
M  V30 8 1 5 9
M  V30 9 1 5 10
M  V30 10 1 6 11
M  V30 11 2 6 12
M  V30 12 1 7 13
M  V30 13 1 7 14
M  V30 14 2 9 15
M  V30 15 1 9 16
M  V30 16 2 10 17
M  V30 17 1 10 18
M  V30 18 1 13 19
M  V30 19 1 16 20
M  V30 20 1 16 21
M  V30 21 1 17 22
M  V30 22 1 19 23
M  V30 23 1 19 24
M  V30 24 1 22 25
M  V30 25 1 22 26
M  V30 26 1 22 27
M  V30 27 1 23 28
M  V30 28 1 25 29
M  V30 29 1 25 30
M  V30 30 1 25 31
M  V30 31 1 28 32
M  V30 32 2 32 33
M  V30 33 1 32 34
M  V30 34 1 8 12
M  V30 35 1 14 19
M  V30 36 1 15 17
M  V30 37 1 20 21
M  V30 38 1 24 28
M  V30 39 1 26 27
M  V30 END BOND
M  V30 END CTAB
M  END
>  <Molecule ChEMBL ID>
CHEMBL4513808

>  <Smiles>
Cc1c(C2(C(F)(F)F)CC2)nc(C2CC2)n1-c1c(Cl)ccc(N2CC3(CC(C(=O)O)C3)C2)c1Cl

>  <IC50_nM>
10000

>  <Assay Description>
Inhibition of Gal4-tagged PPARgamma LBD (unknown origin) by cell based luciferase reporter gene assay

$$$$
CHEMBL1671971
Actelion Java MolfileCreator 2.0

  0  0  0  0  0  0              0 V3000
M  V30 BEGIN CTAB
M  V30 COUNTS 29 31 0 0 0
M  V30 BEGIN ATOM
M  V30 1 S 1.8365 -1.4945 0.0 0
M  V30 2 C 2.8147 -1.7024 0.0 0
M  V30 3 C 1.732 -0.5 0.0 0
M  V30 4 O 3.2214 -2.6159 0.0 0
M  V30 5 N 3.3147 -0.8364 0.0 0
M  V30 6 C 2.6455 -0.0932 0.0 0
M  V30 7 C 0.866 0.0 0.0 0
M  V30 8 O 2.8535 0.8848 0.0 0
M  V30 9 C 0.0 -0.5 0.0 0
M  V30 10 C -0.866 0.0 0.0 0
M  V30 11 C 0.0 -1.4999 0.0 0
M  V30 12 C -1.732 -0.4999 0.0 0
M  V30 13 C -0.866 -1.9999 0.0 0
M  V30 14 O -2.598 0.0 0.0 0
M  V30 15 C -1.732 -1.4999 0.0 0
M  V30 16 C -3.4641 -0.4999 0.0 0
M  V30 17 O -2.598 -1.9999 0.0 0
M  V30 18 C -2.598 -2.9999 0.0 0
M  V30 19 C -3.4641 -3.4999 0.0 0
M  V30 20 C -1.732 -3.4999 0.0 0
M  V30 21 C -3.4641 -4.4999 0.0 0
M  V30 22 C -4.3301 -2.9999 0.0 0
M  V30 23 C -1.732 -4.4999 0.0 0
M  V30 24 C -2.598 -4.9999 0.0 0
M  V30 25 F -4.8301 -3.866 0.0 0
M  V30 26 F -5.1961 -2.4999 0.0 0
M  V30 27 F -3.8301 -2.1339 0.0 0
M  V30 28 C -2.598 -5.9999 0.0 0
M  V30 29 N -2.598 -6.9999 0.0 0
M  V30 END ATOM
M  V30 BEGIN BOND
M  V30 1 1 1 2
M  V30 2 1 1 3
M  V30 3 2 2 4
M  V30 4 1 2 5
M  V30 5 1 3 6
M  V30 6 2 3 7
M  V30 7 2 6 8
M  V30 8 1 7 9
M  V30 9 2 9 10
M  V30 10 1 9 11
M  V30 11 1 10 12
M  V30 12 2 11 13
M  V30 13 1 12 14
M  V30 14 2 12 15
M  V30 15 1 14 16
M  V30 16 1 15 17
M  V30 17 1 17 18
M  V30 18 2 18 19
M  V30 19 1 18 20
M  V30 20 1 19 21
M  V30 21 1 19 22
M  V30 22 2 20 23
M  V30 23 2 21 24
M  V30 24 1 22 25
M  V30 25 1 22 26
M  V30 26 1 22 27
M  V30 27 1 24 28
M  V30 28 3 28 29
M  V30 29 1 5 6
M  V30 30 1 13 15
M  V30 31 1 23 24
M  V30 END BOND
M  V30 END CTAB
M  END
>  <Molecule ChEMBL ID>
CHEMBL1671971

>  <Smiles>
COc1cc(/C=C2\SC(=O)NC2=O)ccc1Oc1ccc(C#N)cc1C(F)(F)F

>  <IC50_nM>
10000

>  <Assay Description>
Binding affinity to PPARgamma by fluorescence polarization assay

$$$$
CHEMBL234800
Actelion Java MolfileCreator 2.0

  0  0  0  0  0  0              0 V3000
M  V30 BEGIN CTAB
M  V30 COUNTS 33 36 0 0 0
M  V30 BEGIN ATOM
M  V30 1 F 4.6961 2.366 0.0 0
M  V30 2 C 5.1961 1.5 0.0 0
M  V30 3 F 6.0621 2.0 0.0 0
M  V30 4 F 5.6961 0.6339 0.0 0
M  V30 5 C 4.3301 1.0 0.0 0
M  V30 6 C 3.4641 1.5 0.0 0
M  V30 7 C 4.3301 0.0 0.0 0
M  V30 8 C 2.598 0.9999 0.0 0
M  V30 9 C 3.4641 -0.4999 0.0 0
M  V30 10 C 2.598 0.0 0.0 0
M  V30 11 O 1.732 -0.5 0.0 0
M  V30 12 C 0.866 0.0 0.0 0
M  V30 13 C 0.0 -0.5 0.0 0
M  V30 14 C -0.866 0.0 0.0 0
M  V30 15 C 0.0 -1.4999 0.0 0
M  V30 16 C -1.732 -0.4999 0.0 0
M  V30 17 C -0.866 -1.9999 0.0 0
M  V30 18 C -1.732 -1.4999 0.0 0
M  V30 19 C -2.598 -1.9999 0.0 0
M  V30 20 O -3.4641 -1.4999 0.0 0
M  V30 21 C -4.3301 -1.9999 0.0 0
M  V30 22 C -5.1961 -1.4999 0.0 0
M  V30 23 C -4.3301 -2.9999 0.0 0
M  V30 24 C -6.0621 -1.9999 0.0 0
M  V30 25 C -5.1961 -3.4999 0.0 0
M  V30 26 O -7.0132 -1.6909 0.0 0
M  V30 27 C -6.0621 -2.9999 0.0 0
M  V30 28 C -7.601 -2.4999 0.0 0
M  V30 29 C -7.0132 -3.309 0.0 0
M  V30 30 C -7.3222 -4.26 0.0 0
M  V30 31 C -8.3003 -4.4679 0.0 0
M  V30 32 O -8.9695 -3.7248 0.0 0
M  V30 33 O -8.6094 -5.419 0.0 0
M  V30 END ATOM
M  V30 BEGIN BOND
M  V30 1 1 1 2
M  V30 2 1 2 3
M  V30 3 1 2 4
M  V30 4 1 2 5
M  V30 5 2 5 6
M  V30 6 1 5 7
M  V30 7 1 6 8
M  V30 8 2 7 9
M  V30 9 2 8 10
M  V30 10 1 10 11
M  V30 11 1 11 12
M  V30 12 1 12 13
M  V30 13 2 13 14
M  V30 14 1 13 15
M  V30 15 1 14 16
M  V30 16 2 15 17
M  V30 17 2 16 18
M  V30 18 1 18 19
M  V30 19 1 19 20
M  V30 20 1 20 21
M  V30 21 2 21 22
M  V30 22 1 21 23
M  V30 23 1 22 24
M  V30 24 2 23 25
M  V30 25 1 24 26
M  V30 26 2 24 27
M  V30 27 1 26 28
M  V30 28 1 27 29
M  V30 29 1 29 30
M  V30 30 1 30 31
M  V30 31 2 31 32
M  V30 32 1 31 33
M  V30 33 1 9 10
M  V30 34 1 17 18
M  V30 35 1 25 27
M  V30 36 2 28 29
M  V30 END BOND
M  V30 END CTAB
M  END
>  <Molecule ChEMBL ID>
CHEMBL234800

>  <Smiles>
O=C(O)Cc1coc2cc(OCc3ccc(COc4ccc(C(F)(F)F)cc4)cc3)ccc12

>  <IC50_nM>
10000

>  <Assay Description>
Displacement of [3H]5-(4-(3-(5-methyl-2-phenyloxazol-4-yl)propanoyl)benzyl)thiazolidine-2,4-dione from human PPARgamma after 2 hrs by SPA

$$$$
CHEMBL393766
Actelion Java MolfileCreator 2.0

  0  0  0  0  0  0              0 V3000
M  V30 BEGIN CTAB
M  V30 COUNTS 33 36 0 0 0
M  V30 BEGIN ATOM
M  V30 1 F 4.6961 2.366 0.0 0
M  V30 2 C 5.1961 1.5 0.0 0
M  V30 3 F 6.0621 2.0 0.0 0
M  V30 4 F 5.6961 0.6339 0.0 0
M  V30 5 C 4.3301 1.0 0.0 0
M  V30 6 C 3.4641 1.5 0.0 0
M  V30 7 C 4.3301 0.0 0.0 0
M  V30 8 C 2.598 0.9999 0.0 0
M  V30 9 C 3.4641 -0.4999 0.0 0
M  V30 10 C 2.598 0.0 0.0 0
M  V30 11 O 1.732 -0.5 0.0 0
M  V30 12 C 0.866 0.0 0.0 0
M  V30 13 C 0.0 -0.5 0.0 0
M  V30 14 C -0.866 0.0 0.0 0
M  V30 15 C 0.0 -1.4999 0.0 0
M  V30 16 C -1.732 -0.4999 0.0 0
M  V30 17 C -0.866 1.0 0.0 0
M  V30 18 C -0.866 -1.9999 0.0 0
M  V30 19 C -1.732 -1.4999 0.0 0
M  V30 20 O 0.0 1.5 0.0 0
M  V30 21 C 0.0 2.5 0.0 0
M  V30 22 C 0.866 2.9999 0.0 0
M  V30 23 C -0.866 3.0 0.0 0
M  V30 24 C 0.866 3.9999 0.0 0
M  V30 25 C -0.866 4.0 0.0 0
M  V30 26 O 1.6091 4.6691 0.0 0
M  V30 27 C 0.0 4.5 0.0 0
M  V30 28 C 1.2024 5.5826 0.0 0
M  V30 29 C 0.2079 5.4781 0.0 0
M  V30 30 C -0.4612 6.2212 0.0 0
M  V30 31 C -0.1522 7.1723 0.0 0
M  V30 32 O 0.8259 7.3802 0.0 0
M  V30 33 O -0.8213 7.9154 0.0 0
M  V30 END ATOM
M  V30 BEGIN BOND
M  V30 1 1 1 2
M  V30 2 1 2 3
M  V30 3 1 2 4
M  V30 4 1 2 5
M  V30 5 2 5 6
M  V30 6 1 5 7
M  V30 7 1 6 8
M  V30 8 2 7 9
M  V30 9 2 8 10
M  V30 10 1 10 11
M  V30 11 1 11 12
M  V30 12 1 12 13
M  V30 13 2 13 14
M  V30 14 1 13 15
M  V30 15 1 14 16
M  V30 16 1 14 17
M  V30 17 2 15 18
M  V30 18 2 16 19
M  V30 19 1 17 20
M  V30 20 1 20 21
M  V30 21 2 21 22
M  V30 22 1 21 23
M  V30 23 1 22 24
M  V30 24 2 23 25
M  V30 25 1 24 26
M  V30 26 2 24 27
M  V30 27 1 26 28
M  V30 28 1 27 29
M  V30 29 1 29 30
M  V30 30 1 30 31
M  V30 31 2 31 32
M  V30 32 1 31 33
M  V30 33 1 9 10
M  V30 34 1 18 19
M  V30 35 1 25 27
M  V30 36 2 28 29
M  V30 END BOND
M  V30 END CTAB
M  END
>  <Molecule ChEMBL ID>
CHEMBL393766

>  <Smiles>
O=C(O)Cc1coc2cc(OCc3ccccc3COc3ccc(C(F)(F)F)cc3)ccc12

>  <IC50_nM>
10000

>  <Assay Description>
Displacement of [3H]5-(4-(3-(5-methyl-2-phenyloxazol-4-yl)propanoyl)benzyl)thiazolidine-2,4-dione from human PPARgamma after 2 hrs by SPA

$$$$
CHEMBL391068
Actelion Java MolfileCreator 2.0

  0  0  0  0  0  0              0 V3000
M  V30 BEGIN CTAB
M  V30 COUNTS 27 30 0 0 0
M  V30 BEGIN ATOM
M  V30 1 Cl 8.1588 -0.0817 0.0 0
M  V30 2 C 7.1643 0.0228 0.0 0
M  V30 3 C 6.7575 0.9363 0.0 0
M  V30 4 C 6.5765 -0.7861 0.0 0
M  V30 5 C 5.763 1.0408 0.0 0
M  V30 6 C 5.582 -0.6816 0.0 0
M  V30 7 C 5.1752 0.2318 0.0 0
M  V30 8 C 4.1807 0.3364 0.0 0
M  V30 9 O 3.6807 1.2024 0.0 0
M  V30 10 C 3.5116 -0.4067 0.0 0
M  V30 11 N 2.7026 0.9945 0.0 0
M  V30 12 C 2.598 0.0 0.0 0
M  V30 13 C 1.732 -0.5 0.0 0
M  V30 14 O 0.866 0.0 0.0 0
M  V30 15 C 0.0 -0.5 0.0 0
M  V30 16 C -0.866 0.0 0.0 0
M  V30 17 C 0.0 -1.5 0.0 0
M  V30 18 C -1.732 -0.4999 0.0 0
M  V30 19 C -0.866 -1.9999 0.0 0
M  V30 20 O -2.6831 -0.1909 0.0 0
M  V30 21 C -1.732 -1.4999 0.0 0
M  V30 22 C -3.2708 -0.9999 0.0 0
M  V30 23 C -2.6831 -1.809 0.0 0
M  V30 24 C -2.9921 -2.76 0.0 0
M  V30 25 C -3.9702 -2.9679 0.0 0
M  V30 26 O -4.6394 -2.2248 0.0 0
M  V30 27 O -4.2792 -3.919 0.0 0
M  V30 END ATOM
M  V30 BEGIN BOND
M  V30 1 1 1 2
M  V30 2 2 2 3
M  V30 3 1 2 4
M  V30 4 1 3 5
M  V30 5 2 4 6
M  V30 6 2 5 7
M  V30 7 1 7 8
M  V30 8 1 8 9
M  V30 9 2 8 10
M  V30 10 1 9 11
M  V30 11 1 10 12
M  V30 12 1 12 13
M  V30 13 1 13 14
M  V30 14 1 14 15
M  V30 15 2 15 16
M  V30 16 1 15 17
M  V30 17 1 16 18
M  V30 18 2 17 19
M  V30 19 1 18 20
M  V30 20 2 18 21
M  V30 21 1 20 22
M  V30 22 1 21 23
M  V30 23 1 23 24
M  V30 24 1 24 25
M  V30 25 2 25 26
M  V30 26 1 25 27
M  V30 27 1 6 7
M  V30 28 2 11 12
M  V30 29 1 19 21
M  V30 30 2 22 23
M  V30 END BOND
M  V30 END CTAB
M  END
>  <Molecule ChEMBL ID>
CHEMBL391068

>  <Smiles>
O=C(O)Cc1coc2cc(OCc3cc(-c4ccc(Cl)cc4)on3)ccc12

>  <IC50_nM>
10000

>  <Assay Description>
Displacement of [3H]5-(4-(3-(5-methyl-2-phenyloxazol-4-yl)propanoyl)benzyl)thiazolidine-2,4-dione from human PPARgamma after 2 hrs by SPA

$$$$
CHEMBL232397
Actelion Java MolfileCreator 2.0

  0  0  0  0  0  0              0 V3000
M  V30 BEGIN CTAB
M  V30 COUNTS 34 37 0 0 0
M  V30 BEGIN ATOM
M  V30 1 S 6.0621 -1.9999 0.0 0
M  V30 2 C 5.1961 -1.4999 0.0 0
M  V30 3 C 6.0621 -2.9999 0.0 0
M  V30 4 C 4.3301 -1.9999 0.0 0
M  V30 5 C 5.1961 -0.4999 0.0 0
M  V30 6 C 6.9282 -3.4999 0.0 0
M  V30 7 C 3.4641 -1.4999 0.0 0
M  V30 8 C 4.1222 -2.9781 0.0 0
M  V30 9 C 4.3301 0.0 0.0 0
M  V30 10 C 6.9282 -4.5 0.0 0
M  V30 11 C 7.7942 -3.0 0.0 0
M  V30 12 C 3.4641 -0.5 0.0 0
M  V30 13 C 2.7209 -2.1691 0.0 0
M  V30 14 C 3.1276 -3.0826 0.0 0
M  V30 15 C 7.7942 -5.0 0.0 0
M  V30 16 C 8.6602 -3.5 0.0 0
M  V30 17 O 2.598 0.0 0.0 0
M  V30 18 C 8.6602 -4.5 0.0 0
M  V30 19 C 1.732 -0.5 0.0 0
M  V30 20 O 9.5262 -5.0 0.0 0
M  V30 21 C 0.866 0.0 0.0 0
M  V30 22 C 9.5262 -6.0 0.0 0
M  V30 23 O 0.866 1.0 0.0 0
M  V30 24 O 0.0 -0.5 0.0 0
M  V30 25 C 10.3923 -6.5 0.0 0
M  V30 26 C 10.3923 -7.5 0.0 0
M  V30 27 C 11.2583 -6.0 0.0 0
M  V30 28 C 11.2583 -8.0 0.0 0
M  V30 29 C 12.1243 -6.5 0.0 0
M  V30 30 C 12.1243 -7.5 0.0 0
M  V30 31 C 12.9903 -8.0 0.0 0
M  V30 32 F 13.4903 -7.1339 0.0 0
M  V30 33 F 13.8564 -8.5 0.0 0
M  V30 34 F 12.4903 -8.866 0.0 0
M  V30 END ATOM
M  V30 BEGIN BOND
M  V30 1 1 1 2
M  V30 2 1 1 3
M  V30 3 2 2 4
M  V30 4 1 2 5
M  V30 5 1 3 6
M  V30 6 1 4 7
M  V30 7 1 4 8
M  V30 8 2 5 9
M  V30 9 2 6 10
M  V30 10 1 6 11
M  V30 11 2 7 12
M  V30 12 1 7 13
M  V30 13 1 8 14
M  V30 14 1 10 15
M  V30 15 2 11 16
M  V30 16 1 12 17
M  V30 17 2 15 18
M  V30 18 1 17 19
M  V30 19 1 18 20
M  V30 20 1 19 21
M  V30 21 1 20 22
M  V30 22 2 21 23
M  V30 23 1 21 24
M  V30 24 1 22 25
M  V30 25 2 25 26
M  V30 26 1 25 27
M  V30 27 1 26 28
M  V30 28 2 27 29
M  V30 29 2 28 30
M  V30 30 1 30 31
M  V30 31 1 31 32
M  V30 32 1 31 33
M  V30 33 1 31 34
M  V30 34 1 9 12
M  V30 35 1 13 14
M  V30 36 1 16 18
M  V30 37 1 29 30
M  V30 END BOND
M  V30 END CTAB
M  END
>  <Molecule ChEMBL ID>
CHEMBL232397

>  <Smiles>
O=C(O)COc1ccc(SCc2ccc(OCc3ccc(C(F)(F)F)cc3)cc2)c2c1CCC2

>  <IC50_nM>
10000

>  <Assay Description>
Displacement of [3H]5-(4-(3-(5-methyl-2-phenyloxazol-4-yl)propanoyl)benzyl)thiazolidine-2,4-dione from human PPARgamma after 2 hrs by SPA assay

$$$$
CHEMBL178245
Actelion Java MolfileCreator 2.0

  0  0  0  0  0  0              0 V3000
M  V30 BEGIN CTAB
M  V30 COUNTS 33 36 0 0 0
M  V30 BEGIN ATOM
M  V30 1 Cl 6.0664 -5.852 0.0 0
M  V30 2 C 6.6542 -5.043 0.0 0
M  V30 3 C 7.6487 -5.1475 0.0 0
M  V30 4 C 6.2475 -4.1294 0.0 0
M  V30 5 C 8.2365 -4.3385 0.0 0
M  V30 6 C 6.8353 -3.3204 0.0 0
M  V30 7 C 7.8298 -3.4249 0.0 0
M  V30 8 C 8.4176 -2.6159 0.0 0
M  V30 9 O 9.4121 -2.7205 0.0 0
M  V30 10 N 8.0108 -1.7024 0.0 0
M  V30 11 C 8.5108 -0.8364 0.0 0
M  V30 12 C 7.0327 -1.4945 0.0 0
M  V30 13 C 7.8417 -0.0932 0.0 0
M  V30 14 C 9.489 -0.6284 0.0 0
M  V30 15 C 6.9282 -0.5 0.0 0
M  V30 16 C 6.2895 -2.1636 0.0 0
M  V30 17 C 8.1507 0.8577 0.0 0
M  V30 18 C 9.798 0.3225 0.0 0
M  V30 19 C 6.0621 0.0 0.0 0
M  V30 20 C 9.1289 1.0657 0.0 0
M  V30 21 C 5.1961 -0.5 0.0 0
M  V30 22 O 9.4379 2.0167 0.0 0
M  V30 23 C 4.3301 0.0 0.0 0
M  V30 24 C 5.1961 -1.4999 0.0 0
M  V30 25 C 8.7687 2.7599 0.0 0
M  V30 26 C 3.4641 -0.5 0.0 0
M  V30 27 C 4.3301 -1.9999 0.0 0
M  V30 28 O 2.598 0.0 0.0 0
M  V30 29 C 3.4641 -1.4999 0.0 0
M  V30 30 C 1.732 -0.5 0.0 0
M  V30 31 C 0.866 0.0 0.0 0
M  V30 32 O 0.866 1.0 0.0 0
M  V30 33 O 0.0 -0.5 0.0 0
M  V30 END ATOM
M  V30 BEGIN BOND
M  V30 1 1 1 2
M  V30 2 2 2 3
M  V30 3 1 2 4
M  V30 4 1 3 5
M  V30 5 2 4 6
M  V30 6 2 5 7
M  V30 7 1 7 8
M  V30 8 2 8 9
M  V30 9 1 8 10
M  V30 10 1 10 11
M  V30 11 1 10 12
M  V30 12 2 11 13
M  V30 13 1 11 14
M  V30 14 2 12 15
M  V30 15 1 12 16
M  V30 16 1 13 17
M  V30 17 2 14 18
M  V30 18 1 15 19
M  V30 19 2 17 20
M  V30 20 1 19 21
M  V30 21 1 20 22
M  V30 22 2 21 23
M  V30 23 1 21 24
M  V30 24 1 22 25
M  V30 25 1 23 26
M  V30 26 2 24 27
M  V30 27 1 26 28
M  V30 28 2 26 29
M  V30 29 1 28 30
M  V30 30 1 30 31
M  V30 31 2 31 32
M  V30 32 1 31 33
M  V30 33 1 6 7
M  V30 34 1 13 15
M  V30 35 1 18 20
M  V30 36 1 27 29
M  V30 END BOND
M  V30 END CTAB
M  END
>  <Molecule ChEMBL ID>
CHEMBL178245

>  <Smiles>
COc1ccc2c(c1)c(Cc1cccc(OCC(=O)O)c1)c(C)n2C(=O)c1ccc(Cl)cc1

>  <IC50_nM>
10000

>  <Assay Description>
In vitro inhibition of human Peroxisome proliferator activated receptor gamma

$$$$
CHEMBL232400
Actelion Java MolfileCreator 2.0

  0  0  0  0  0  0              0 V3000
M  V30 BEGIN CTAB
M  V30 COUNTS 35 38 0 0 0
M  V30 BEGIN ATOM
M  V30 1 S 6.0621 -1.9999 0.0 0
M  V30 2 C 5.1961 -1.4999 0.0 0
M  V30 3 C 6.0621 -2.9999 0.0 0
M  V30 4 C 4.3301 -1.9999 0.0 0
M  V30 5 C 5.1961 -0.4999 0.0 0
M  V30 6 C 6.9282 -3.4999 0.0 0
M  V30 7 C 3.4641 -1.4999 0.0 0
M  V30 8 C 4.1222 -2.9781 0.0 0
M  V30 9 C 4.3301 0.0 0.0 0
M  V30 10 C 6.9282 -4.5 0.0 0
M  V30 11 C 7.7942 -3.0 0.0 0
M  V30 12 C 3.4641 -0.5 0.0 0
M  V30 13 C 2.7209 -2.1691 0.0 0
M  V30 14 C 3.1276 -3.0826 0.0 0
M  V30 15 O 6.0621 -4.9999 0.0 0
M  V30 16 C 7.7942 -5.0 0.0 0
M  V30 17 C 8.6602 -3.5 0.0 0
M  V30 18 O 2.598 0.0 0.0 0
M  V30 19 C 5.1961 -4.4999 0.0 0
M  V30 20 C 8.6602 -4.5 0.0 0
M  V30 21 F 9.5262 -3.0 0.0 0
M  V30 22 C 1.732 -0.5 0.0 0
M  V30 23 C 4.3301 -4.9999 0.0 0
M  V30 24 C 0.866 0.0 0.0 0
M  V30 25 C 3.4641 -4.4999 0.0 0
M  V30 26 C 4.3301 -5.9999 0.0 0
M  V30 27 O 0.866 1.0 0.0 0
M  V30 28 O 0.0 -0.5 0.0 0
M  V30 29 C 2.598 -4.9999 0.0 0
M  V30 30 C 3.4641 -6.4999 0.0 0
M  V30 31 C 2.598 -5.9999 0.0 0
M  V30 32 C 1.732 -6.4999 0.0 0
M  V30 33 F 2.232 -7.366 0.0 0
M  V30 34 F 0.866 -6.9999 0.0 0
M  V30 35 F 1.232 -5.6339 0.0 0
M  V30 END ATOM
M  V30 BEGIN BOND
M  V30 1 1 1 2
M  V30 2 1 1 3
M  V30 3 2 2 4
M  V30 4 1 2 5
M  V30 5 1 3 6
M  V30 6 1 4 7
M  V30 7 1 4 8
M  V30 8 2 5 9
M  V30 9 2 6 10
M  V30 10 1 6 11
M  V30 11 2 7 12
M  V30 12 1 7 13
M  V30 13 1 8 14
M  V30 14 1 10 15
M  V30 15 1 10 16
M  V30 16 2 11 17
M  V30 17 1 12 18
M  V30 18 1 15 19
M  V30 19 2 16 20
M  V30 20 1 17 21
M  V30 21 1 18 22
M  V30 22 1 19 23
M  V30 23 1 22 24
M  V30 24 2 23 25
M  V30 25 1 23 26
M  V30 26 2 24 27
M  V30 27 1 24 28
M  V30 28 1 25 29
M  V30 29 2 26 30
M  V30 30 2 29 31
M  V30 31 1 31 32
M  V30 32 1 32 33
M  V30 33 1 32 34
M  V30 34 1 32 35
M  V30 35 1 9 12
M  V30 36 1 13 14
M  V30 37 1 17 20
M  V30 38 1 30 31
M  V30 END BOND
M  V30 END CTAB
M  END
>  <Molecule ChEMBL ID>
CHEMBL232400

>  <Smiles>
O=C(O)COc1ccc(SCc2cc(F)ccc2OCc2ccc(C(F)(F)F)cc2)c2c1CCC2

>  <IC50_nM>
10000

>  <Assay Description>
Displacement of [3H]5-(4-(3-(5-methyl-2-phenyloxazol-4-yl)propanoyl)benzyl)thiazolidine-2,4-dione from human PPARgamma after 2 hrs by SPA assay

$$$$
CHEMBL234383
Actelion Java MolfileCreator 2.0

  0  0  0  0  0  0              0 V3000
M  V30 BEGIN CTAB
M  V30 COUNTS 33 36 0 0 0
M  V30 BEGIN ATOM
M  V30 1 S 4.1807 0.3364 0.0 0
M  V30 2 C 3.6807 1.2024 0.0 0
M  V30 3 C 3.5116 -0.4067 0.0 0
M  V30 4 C 2.7026 0.9945 0.0 0
M  V30 5 C 3.9897 2.1534 0.0 0
M  V30 6 C 2.598 0.0 0.0 0
M  V30 7 C 2.0334 1.7376 0.0 0
M  V30 8 C 3.3206 2.8966 0.0 0
M  V30 9 C 1.732 -0.5 0.0 0
M  V30 10 C 2.3424 2.6887 0.0 0
M  V30 11 O 3.6296 3.8476 0.0 0
M  V30 12 C 0.866 0.0 0.0 0
M  V30 13 C 4.6078 4.0556 0.0 0
M  V30 14 O 0.866 1.0 0.0 0
M  V30 15 O 0.0 -0.5 0.0 0
M  V30 16 C 4.9168 5.0066 0.0 0
M  V30 17 C 5.8949 5.2145 0.0 0
M  V30 18 C 4.2476 5.7498 0.0 0
M  V30 19 C 6.2039 6.1656 0.0 0
M  V30 20 C 6.564 4.4714 0.0 0
M  V30 21 C 4.5567 6.7008 0.0 0
M  V30 22 C 5.5348 6.9087 0.0 0
M  V30 23 O 6.255 3.5203 0.0 0
M  V30 24 C 6.9242 2.7772 0.0 0
M  V30 25 C 6.6151 1.8261 0.0 0
M  V30 26 C 7.9023 2.9851 0.0 0
M  V30 27 C 7.2843 1.083 0.0 0
M  V30 28 C 8.5714 2.2419 0.0 0
M  V30 29 C 8.2624 1.2909 0.0 0
M  V30 30 C 8.9316 0.5477 0.0 0
M  V30 31 F 9.6747 1.2169 0.0 0
M  V30 32 F 9.6007 -0.1953 0.0 0
M  V30 33 F 8.1884 -0.1213 0.0 0
M  V30 END ATOM
M  V30 BEGIN BOND
M  V30 1 1 1 2
M  V30 2 1 1 3
M  V30 3 2 2 4
M  V30 4 1 2 5
M  V30 5 2 3 6
M  V30 6 1 4 7
M  V30 7 2 5 8
M  V30 8 1 6 9
M  V30 9 2 7 10
M  V30 10 1 8 11
M  V30 11 1 9 12
M  V30 12 1 11 13
M  V30 13 2 12 14
M  V30 14 1 12 15
M  V30 15 1 13 16
M  V30 16 2 16 17
M  V30 17 1 16 18
M  V30 18 1 17 19
M  V30 19 1 17 20
M  V30 20 2 18 21
M  V30 21 2 19 22
M  V30 22 1 20 23
M  V30 23 1 23 24
M  V30 24 2 24 25
M  V30 25 1 24 26
M  V30 26 1 25 27
M  V30 27 2 26 28
M  V30 28 2 27 29
M  V30 29 1 29 30
M  V30 30 1 30 31
M  V30 31 1 30 32
M  V30 32 1 30 33
M  V30 33 1 4 6
M  V30 34 1 8 10
M  V30 35 1 21 22
M  V30 36 1 28 29
M  V30 END BOND
M  V30 END CTAB
M  END
>  <Molecule ChEMBL ID>
CHEMBL234383

>  <Smiles>
O=C(O)Cc1csc2cc(OCc3ccccc3COc3ccc(C(F)(F)F)cc3)ccc12

>  <IC50_nM>
10000

>  <Assay Description>
Displacement of [3H]5-(4-(3-(5-methyl-2-phenyloxazol-4-yl)propanoyl)benzyl)thiazolidine-2,4-dione from human PPARgamma after 2 hrs by SPA

$$$$
CHEMBL363369
Actelion Java MolfileCreator 2.0

  0  0  0  0  0  0              0 V3000
M  V30 BEGIN CTAB
M  V30 COUNTS 23 24 0 0 0
M  V30 BEGIN ATOM
M  V30 1 F 11.1109 -3.6765 0.0 0
M  V30 2 C 9.6843 -4.1401 0.0 0
M  V30 3 F 10.1478 -5.5667 0.0 0
M  V30 4 F 8.2577 -4.6036 0.0 0
M  V30 5 C 9.2208 -2.7135 0.0 0
M  V30 6 N 10.1025 -1.5 0.0 0
M  V30 7 C 7.7942 -2.25 0.0 0
M  V30 8 O 9.2208 -0.2864 0.0 0
M  V30 9 C 7.7942 -0.75 0.0 0
M  V30 10 C 6.4952 -3.0 0.0 0
M  V30 11 C 6.4952 0.0 0.0 0
M  V30 12 C 5.1961 -2.25 0.0 0
M  V30 13 C 5.1961 -0.75 0.0 0
M  V30 14 C 6.4952 1.5 0.0 0
M  V30 15 O 3.8971 0.0 0.0 0
M  V30 16 C 7.7942 2.25 0.0 0
M  V30 17 C 2.598 -0.75 0.0 0
M  V30 18 C 7.7942 3.75 0.0 0
M  V30 19 C 1.299 0.0 0.0 0
M  V30 20 C 1.848 -2.049 0.0 0
M  V30 21 C 3.348 -2.049 0.0 0
M  V30 22 O 1.299 1.5 0.0 0
M  V30 23 O 0.0 -0.75 0.0 0
M  V30 END ATOM
M  V30 BEGIN BOND
M  V30 1 1 1 2
M  V30 2 1 2 3
M  V30 3 1 2 4
M  V30 4 1 2 5
M  V30 5 2 5 6
M  V30 6 1 5 7
M  V30 7 1 6 8
M  V30 8 2 7 9
M  V30 9 1 7 10
M  V30 10 1 9 11
M  V30 11 2 10 12
M  V30 12 2 11 13
M  V30 13 1 11 14
M  V30 14 1 13 15
M  V30 15 1 14 16
M  V30 16 1 15 17
M  V30 17 1 16 18
M  V30 18 1 17 19
M  V30 19 1 17 20
M  V30 20 1 17 21
M  V30 21 2 19 22
M  V30 22 1 19 23
M  V30 23 1 8 9
M  V30 24 1 12 13
M  V30 END BOND
M  V30 END CTAB
M  END
>  <Molecule ChEMBL ID>
CHEMBL363369

>  <Smiles>
CCCc1c(OC(C)(C)C(=O)O)ccc2c(C(F)(F)F)noc12

>  <IC50_nM>
10000

>  <Assay Description>
Inhibition of human Peroxisome proliferator activated receptor gamma binding

$$$$
CHEMBL24683
Actelion Java MolfileCreator 2.0

  0  0  0  0  0  0              0 V3000
M  V30 BEGIN CTAB
M  V30 COUNTS 31 34 0 0 0
M  V30 BEGIN ATOM
M  V30 1 O 6.4951 0.0 0.0 0
M  V30 2 C 5.1961 -0.75 0.0 0
M  V30 3 O 5.1961 -2.25 0.0 0
M  V30 4 C 3.8971 0.0 0.0 0 CFG=2
M  V30 5 O 2.598 -0.75 0.0 0
M  V30 6 C 3.8971 1.5 0.0 0
M  V30 7 C 1.299 0.0 0.0 0
M  V30 8 C 2.598 2.25 0.0 0
M  V30 9 C 0.0 -0.75 0.0 0
M  V30 10 C 2.598 3.75 0.0 0
M  V30 11 C 1.299 1.5 0.0 0
M  V30 12 C 1.299 4.5 0.0 0
M  V30 13 C 0.0 2.25 0.0 0
M  V30 14 C 0.0 3.75 0.0 0
M  V30 15 O -1.299 4.5 0.0 0
M  V30 16 C -2.598 3.75 0.0 0
M  V30 17 C -3.8971 4.5 0.0 0
M  V30 18 N -5.1961 3.75 0.0 0
M  V30 19 C -6.4951 4.5 0.0 0
M  V30 20 C -5.1961 2.25 0.0 0
M  V30 21 C -7.7942 3.75 0.0 0
M  V30 22 C -6.4951 6.0 0.0 0
M  V30 23 C -6.4951 1.5 0.0 0
M  V30 24 C -3.8971 1.5 0.0 0
M  V30 25 O -7.7942 2.25 0.0 0
M  V30 26 C -9.0932 4.5 0.0 0
M  V30 27 C -7.7942 6.75 0.0 0
M  V30 28 C -6.4951 0.0 0.0 0
M  V30 29 C -3.8971 0.0 0.0 0
M  V30 30 C -9.0932 6.0 0.0 0
M  V30 31 C -5.1961 -0.7499 0.0 0
M  V30 END ATOM
M  V30 BEGIN BOND
M  V30 1 2 1 2
M  V30 2 1 2 3
M  V30 3 1 2 4
M  V30 4 1 4 5 CFG=3
M  V30 5 1 4 6
M  V30 6 1 5 7
M  V30 7 1 6 8
M  V30 8 1 7 9
M  V30 9 2 8 10
M  V30 10 1 8 11
M  V30 11 1 10 12
M  V30 12 2 11 13
M  V30 13 2 12 14
M  V30 14 1 14 15
M  V30 15 1 15 16
M  V30 16 1 16 17
M  V30 17 1 17 18
M  V30 18 1 18 19
M  V30 19 1 18 20
M  V30 20 2 19 21
M  V30 21 1 19 22
M  V30 22 2 20 23
M  V30 23 1 20 24
M  V30 24 1 21 25
M  V30 25 1 21 26
M  V30 26 2 22 27
M  V30 27 1 23 28
M  V30 28 2 24 29
M  V30 29 2 26 30
M  V30 30 2 28 31
M  V30 31 1 13 14
M  V30 32 1 23 25
M  V30 33 1 27 30
M  V30 34 1 29 31
M  V30 END BOND
M  V30 BEGIN COLLECTION
M  V30 MDLV30/STEABS ATOMS=(1 4)
M  V30 END COLLECTION
M  V30 END CTAB
M  END
>  <Molecule ChEMBL ID>
CHEMBL24683

>  <Smiles>
CCO[C@H](Cc1ccc(OCCN2c3ccccc3Oc3ccccc32)cc1)C(=O)O

>  <IC50_nM>
10000

>  <Assay Description>
Receptor binding affinity to human Peroxisome proliferator activated receptor gamma against [3H]ragalitazar radioligand

$$$$
CHEMBL597350
Actelion Java MolfileCreator 2.0

  0  0  0  0  0  0              0 V3000
M  V30 BEGIN CTAB
M  V30 COUNTS 21 22 0 0 0
M  V30 BEGIN ATOM
M  V30 1 Cl 11.6913 -3.0 0.0 0
M  V30 2 C 10.3923 -2.25 0.0 0
M  V30 3 C 10.3923 -0.75 0.0 0
M  V30 4 C 9.0932 -3.0 0.0 0
M  V30 5 C 9.0932 0.0 0.0 0
M  V30 6 C 7.7942 -2.25 0.0 0
M  V30 7 C 7.7942 -0.75 0.0 0
M  V30 8 C 6.4952 0.0 0.0 0
M  V30 9 O 6.4952 1.5 0.0 0
M  V30 10 N 5.1961 -0.75 0.0 0
M  V30 11 C 3.8971 0.0 0.0 0
M  V30 12 C 2.598 -0.75 0.0 0
M  V30 13 S 1.299 0.0 0.0 0
M  V30 14 O 2.049 1.299 0.0 0
M  V30 15 O 0.549 1.299 0.0 0
M  V30 16 C 0.0 -0.75 0.0 0
M  V30 17 N -1.299 0.0 0.0 0
M  V30 18 C 0.0 -2.25 0.0 0
M  V30 19 C -2.598 -0.75 0.0 0
M  V30 20 C -1.299 -3.0 0.0 0
M  V30 21 C -2.598 -2.25 0.0 0
M  V30 END ATOM
M  V30 BEGIN BOND
M  V30 1 1 1 2
M  V30 2 2 2 3
M  V30 3 1 2 4
M  V30 4 1 3 5
M  V30 5 2 4 6
M  V30 6 2 5 7
M  V30 7 1 7 8
M  V30 8 2 8 9
M  V30 9 1 8 10
M  V30 10 1 10 11
M  V30 11 1 11 12
M  V30 12 1 12 13
M  V30 13 2 13 14
M  V30 14 2 13 15
M  V30 15 1 13 16
M  V30 16 2 16 17
M  V30 17 1 16 18
M  V30 18 1 17 19
M  V30 19 2 18 20
M  V30 20 2 19 21
M  V30 21 1 6 7
M  V30 22 1 20 21
M  V30 END BOND
M  V30 END CTAB
M  END
>  <Molecule ChEMBL ID>
CHEMBL597350

>  <Smiles>
O=C(NCCS(=O)(=O)c1ccccn1)c1ccc(Cl)cc1

>  <IC50_nM>
10000

>  <Assay Description>
Inhibition of human PPARgamma receptor by ligand displacement assay

$$$$
CHEMBL3398424
Actelion Java MolfileCreator 2.0

  0  0  0  0  0  0              0 V3000
M  V30 BEGIN CTAB
M  V30 COUNTS 34 37 0 0 0
M  V30 BEGIN ATOM
M  V30 1 O 3.4641 -0.5 0.0 0
M  V30 2 C 2.598 0.0 0.0 0
M  V30 3 O 1.732 -0.5 0.0 0
M  V30 4 N 2.598 1.0 0.0 0
M  V30 5 C 0.866 0.0 0.0 0
M  V30 6 C 3.407 1.5877 0.0 0
M  V30 7 C 1.789 1.5877 0.0 0
M  V30 8 C 0.0 -0.5 0.0 0
M  V30 9 C 3.098 2.5388 0.0 0 CFG=2
M  V30 10 C 2.098 2.5388 0.0 0 CFG=1
M  V30 11 C 3.6858 3.3478 0.0 0
M  V30 12 C 1.5102 3.3478 0.0 0
M  V30 13 C 4.6803 3.2433 0.0 0
M  V30 14 C 3.2791 4.2614 0.0 0
M  V30 15 O 1.917 4.2614 0.0 0
M  V30 16 O 0.5157 3.2433 0.0 0
M  V30 17 C 5.2681 4.0523 0.0 0
M  V30 18 C 3.8669 5.0704 0.0 0
M  V30 19 O 6.2626 3.9478 0.0 0
M  V30 20 C 4.8614 4.9658 0.0 0
M  V30 21 C 6.8504 4.7568 0.0 0
M  V30 22 C 7.8449 4.6523 0.0 0
M  V30 23 C 8.4327 5.4613 0.0 0
M  V30 24 N 9.4327 5.4613 0.0 0
M  V30 25 C 8.1237 6.4123 0.0 0
M  V30 26 C 9.7417 6.4123 0.0 0
M  V30 27 O 8.9327 7.0001 0.0 0
M  V30 28 C 7.1727 6.7213 0.0 0
M  V30 29 C 10.6928 6.7213 0.0 0
M  V30 30 C 11.436 6.0522 0.0 0
M  V30 31 C 10.9007 7.6995 0.0 0
M  V30 32 C 12.387 6.3612 0.0 0
M  V30 33 C 11.8518 8.0085 0.0 0
M  V30 34 C 12.5949 7.3394 0.0 0
M  V30 END ATOM
M  V30 BEGIN BOND
M  V30 1 2 1 2
M  V30 2 1 2 3
M  V30 3 1 2 4
M  V30 4 1 3 5
M  V30 5 1 4 6
M  V30 6 1 4 7
M  V30 7 1 5 8
M  V30 8 1 6 9
M  V30 9 1 7 10
M  V30 10 1 9 11 CFG=3
M  V30 11 1 10 12 CFG=3
M  V30 12 2 11 13
M  V30 13 1 11 14
M  V30 14 2 12 15
M  V30 15 1 12 16
M  V30 16 1 13 17
M  V30 17 2 14 18
M  V30 18 1 17 19
M  V30 19 2 17 20
M  V30 20 1 19 21
M  V30 21 1 21 22
M  V30 22 1 22 23
M  V30 23 1 23 24
M  V30 24 2 23 25
M  V30 25 2 24 26
M  V30 26 1 25 27
M  V30 27 1 25 28
M  V30 28 1 26 29
M  V30 29 2 29 30
M  V30 30 1 29 31
M  V30 31 1 30 32
M  V30 32 2 31 33
M  V30 33 2 32 34
M  V30 34 1 9 10
M  V30 35 1 18 20
M  V30 36 1 26 27
M  V30 37 1 33 34
M  V30 END BOND
M  V30 BEGIN COLLECTION
M  V30 MDLV30/STEABS ATOMS=(2 9 10)
M  V30 END COLLECTION
M  V30 END CTAB
M  END
>  <Molecule ChEMBL ID>
CHEMBL3398424

>  <Smiles>
CCOC(=O)N1C[C@H](C(=O)O)[C@H](c2cccc(OCCc3nc(-c4ccccc4)oc3C)c2)C1

>  <IC50_nM>
10000

>  <Assay Description>
Binding affinity to PPARgamma (unknown origin) using fluorescein-tagged dual PPARalpha/gamma activator by homogeneous fluorescence polarization binding assay

$$$$
CHEMBL592652
Actelion Java MolfileCreator 2.0

  0  0  0  0  0  0              0 V3000
M  V30 BEGIN CTAB
M  V30 COUNTS 28 30 0 0 0
M  V30 BEGIN ATOM
M  V30 1 S 2.598 -0.75 0.0 0
M  V30 2 O 1.848 -2.049 0.0 0
M  V30 3 O 3.348 -2.049 0.0 0
M  V30 4 N 1.299 0.0 0.0 0
M  V30 5 C 3.8971 0.0 0.0 0
M  V30 6 C 0.0 -0.75 0.0 0
M  V30 7 C 5.2674 -0.6101 0.0 0
M  V30 8 C 4.0539 1.4917 0.0 0
M  V30 9 C -1.299 0.0 0.0 0
M  V30 10 C 0.0 -2.25 0.0 0
M  V30 11 S 6.2711 0.5046 0.0 0
M  V30 12 C 5.5793 -2.0773 0.0 0
M  V30 13 C 5.5211 1.8036 0.0 0
M  V30 14 O -1.299 1.5 0.0 0
M  V30 15 C -2.598 -0.75 0.0 0
M  V30 16 C -1.299 -3.0 0.0 0
M  V30 17 O 7.0058 -2.5408 0.0 0
M  V30 18 O 4.4645 -3.081 0.0 0
M  V30 19 C -2.598 2.25 0.0 0
M  V30 20 C -2.598 -2.25 0.0 0
M  V30 21 C 4.7764 -4.5482 0.0 0
M  V30 22 N -3.8971 -3.0 0.0 0
M  V30 23 C -3.8971 -4.5 0.0 0
M  V30 24 C -5.1961 -5.25 0.0 0
M  V30 25 C -2.598 -5.25 0.0 0
M  V30 26 C -5.1961 -6.75 0.0 0
M  V30 27 C -2.598 -6.75 0.0 0
M  V30 28 C -3.8971 -7.5 0.0 0
M  V30 END ATOM
M  V30 BEGIN BOND
M  V30 1 2 1 2
M  V30 2 2 1 3
M  V30 3 1 1 4
M  V30 4 1 1 5
M  V30 5 1 4 6
M  V30 6 2 5 7
M  V30 7 1 5 8
M  V30 8 2 6 9
M  V30 9 1 6 10
M  V30 10 1 7 11
M  V30 11 1 7 12
M  V30 12 2 8 13
M  V30 13 1 9 14
M  V30 14 1 9 15
M  V30 15 2 10 16
M  V30 16 2 12 17
M  V30 17 1 12 18
M  V30 18 1 14 19
M  V30 19 2 15 20
M  V30 20 1 18 21
M  V30 21 1 20 22
M  V30 22 1 22 23
M  V30 23 2 23 24
M  V30 24 1 23 25
M  V30 25 1 24 26
M  V30 26 2 25 27
M  V30 27 2 26 28
M  V30 28 1 11 13
M  V30 29 1 16 20
M  V30 30 1 27 28
M  V30 END BOND
M  V30 END CTAB
M  END
>  <Molecule ChEMBL ID>
CHEMBL592652

>  <Smiles>
COC(=O)c1sccc1S(=O)(=O)Nc1ccc(Nc2ccccc2)cc1OC

>  <IC50_nM>
10000

>  <Assay Description>
Inhibition of human PPARgamma receptor by ligand displacement assay

$$$$
CHEMBL427408
Actelion Java MolfileCreator 2.0

  0  0  0  0  0  0              0 V3000
M  V30 BEGIN CTAB
M  V30 COUNTS 31 34 0 0 0
M  V30 BEGIN ATOM
M  V30 1 O 6.4951 0.0 0.0 0
M  V30 2 C 6.4951 1.4999 0.0 0
M  V30 3 O 7.7942 2.2499 0.0 0
M  V30 4 C 5.1961 2.2499 0.0 0 CFG=1
M  V30 5 O 5.1961 3.7499 0.0 0
M  V30 6 C 3.8971 1.5 0.0 0
M  V30 7 C 3.8971 4.5 0.0 0
M  V30 8 C 2.598 2.25 0.0 0
M  V30 9 C 3.8971 6.0 0.0 0
M  V30 10 C 1.299 1.5 0.0 0
M  V30 11 C 2.598 3.75 0.0 0
M  V30 12 C 0.0 2.25 0.0 0
M  V30 13 C 0.9871 0.0327 0.0 0
M  V30 14 C 1.299 4.5 0.0 0
M  V30 15 N -1.1147 1.2463 0.0 0
M  V30 16 C 0.0 3.75 0.0 0
M  V30 17 C -0.5046 -0.124 0.0 0
M  V30 18 C -2.5819 1.5581 0.0 0
M  V30 19 C -3.0454 2.9847 0.0 0
M  V30 20 C -4.5126 3.2966 0.0 0
M  V30 21 N -5.1227 4.6669 0.0 0
M  V30 22 C -5.6274 2.2929 0.0 0
M  V30 23 C -6.6145 4.5101 0.0 0
M  V30 24 O -6.9264 3.0429 0.0 0
M  V30 25 C -5.4706 0.8011 0.0 0
M  V30 26 C -7.6182 5.6248 0.0 0
M  V30 27 C -7.1547 7.0514 0.0 0
M  V30 28 C -9.0854 5.3129 0.0 0
M  V30 29 C -8.1584 8.1661 0.0 0
M  V30 30 C -10.0891 6.4277 0.0 0
M  V30 31 C -9.6256 7.8543 0.0 0
M  V30 END ATOM
M  V30 BEGIN BOND
M  V30 1 2 1 2
M  V30 2 1 2 3
M  V30 3 1 2 4
M  V30 4 1 4 5 CFG=3
M  V30 5 1 4 6
M  V30 6 1 5 7
M  V30 7 1 6 8
M  V30 8 1 7 9
M  V30 9 2 8 10
M  V30 10 1 8 11
M  V30 11 1 10 12
M  V30 12 1 10 13
M  V30 13 2 11 14
M  V30 14 1 12 15
M  V30 15 2 12 16
M  V30 16 2 13 17
M  V30 17 1 15 18
M  V30 18 1 18 19
M  V30 19 1 19 20
M  V30 20 1 20 21
M  V30 21 2 20 22
M  V30 22 2 21 23
M  V30 23 1 22 24
M  V30 24 1 22 25
M  V30 25 1 23 26
M  V30 26 2 26 27
M  V30 27 1 26 28
M  V30 28 1 27 29
M  V30 29 2 28 30
M  V30 30 2 29 31
M  V30 31 1 14 16
M  V30 32 1 15 17
M  V30 33 1 23 24
M  V30 34 1 30 31
M  V30 END BOND
M  V30 BEGIN COLLECTION
M  V30 MDLV30/STERAC1 ATOMS=(1 4)
M  V30 END COLLECTION
M  V30 END CTAB
M  END
>  <Molecule ChEMBL ID>
CHEMBL427408

>  <Smiles>
CCOC(Cc1cccc2c1ccn2CCc1nc(-c2ccccc2)oc1C)C(=O)O

>  <IC50_nM>
10000

>  <Assay Description>
Binding affinity to PPARgamma by radio ligand binding assay

$$$$
CHEMBL598155
Actelion Java MolfileCreator 2.0

  0  0  0  0  0  0              0 V3000
M  V30 BEGIN CTAB
M  V30 COUNTS 28 29 0 0 0
M  V30 BEGIN ATOM
M  V30 1 S 6.4952 0.0 0.0 0
M  V30 2 O 7.2452 1.299 0.0 0
M  V30 3 O 5.7451 1.299 0.0 0
M  V30 4 C 7.7942 -0.75 0.0 0
M  V30 5 C 5.1961 -0.75 0.0 0
M  V30 6 N 7.7942 -2.25 0.0 0
M  V30 7 C 9.0932 0.0 0.0 0
M  V30 8 C 3.8971 0.0 0.0 0
M  V30 9 C 9.0932 -3.0 0.0 0
M  V30 10 C 10.3923 -0.75 0.0 0
M  V30 11 N 2.598 -0.75 0.0 0
M  V30 12 C 10.3923 -2.25 0.0 0
M  V30 13 C 1.299 0.0 0.0 0
M  V30 14 C 11.6913 -3.0 0.0 0
M  V30 15 O 1.299 1.5 0.0 0
M  V30 16 C 0.0 -0.75 0.0 0
M  V30 17 F 12.4413 -1.7009 0.0 0
M  V30 18 F 12.9904 -3.75 0.0 0
M  V30 19 F 10.9413 -4.299 0.0 0
M  V30 20 C -1.299 0.0 0.0 0
M  V30 21 C 0.0 -2.25 0.0 0
M  V30 22 C -2.598 -0.75 0.0 0
M  V30 23 C -1.299 -3.0 0.0 0
M  V30 24 C -2.598 -2.25 0.0 0
M  V30 25 C -3.8971 -3.0 0.0 0
M  V30 26 C -5.1961 -2.25 0.0 0
M  V30 27 C -5.1961 -0.75 0.0 0
M  V30 28 C -6.4952 -3.0 0.0 0
M  V30 END ATOM
M  V30 BEGIN BOND
M  V30 1 2 1 2
M  V30 2 2 1 3
M  V30 3 1 1 4
M  V30 4 1 1 5
M  V30 5 2 4 6
M  V30 6 1 4 7
M  V30 7 1 5 8
M  V30 8 1 6 9
M  V30 9 2 7 10
M  V30 10 1 8 11
M  V30 11 2 9 12
M  V30 12 1 11 13
M  V30 13 1 12 14
M  V30 14 2 13 15
M  V30 15 1 13 16
M  V30 16 1 14 17
M  V30 17 1 14 18
M  V30 18 1 14 19
M  V30 19 2 16 20
M  V30 20 1 16 21
M  V30 21 1 20 22
M  V30 22 2 21 23
M  V30 23 2 22 24
M  V30 24 1 24 25
M  V30 25 1 25 26
M  V30 26 1 26 27
M  V30 27 1 26 28
M  V30 28 1 10 12
M  V30 29 1 23 24
M  V30 END BOND
M  V30 END CTAB
M  END
>  <Molecule ChEMBL ID>
CHEMBL598155

>  <Smiles>
CC(C)Cc1ccc(C(=O)NCCS(=O)(=O)c2ccc(C(F)(F)F)cn2)cc1

>  <IC50_nM>
10000

>  <Assay Description>
Inhibition of human PPARgamma receptor by ligand displacement assay

$$$$
CHEMBL4174856
Actelion Java MolfileCreator 2.0

  0  0  0  0  0  0              0 V3000
M  V30 BEGIN CTAB
M  V30 COUNTS 37 41 0 0 0
M  V30 BEGIN ATOM
M  V30 1 Cl 6.4951 -3.0 0.0 0
M  V30 2 C 5.1961 -2.25 0.0 0
M  V30 3 C 5.1961 -0.75 0.0 0
M  V30 4 C 3.8971 -2.9999 0.0 0
M  V30 5 C 3.8971 0.0 0.0 0
M  V30 6 C 2.598 -2.25 0.0 0
M  V30 7 C 2.598 -0.75 0.0 0
M  V30 8 C 3.8971 1.5 0.0 0
M  V30 9 C 1.299 0.0 0.0 0
M  V30 10 F 2.3971 1.5 0.0 0
M  V30 11 F 3.8971 3.0 0.0 0
M  V30 12 F 5.3971 1.5 0.0 0
M  V30 13 N 0.0 -0.75 0.0 0
M  V30 14 N -1.3703 -0.1398 0.0 0
M  V30 15 C -0.1567 -2.2417 0.0 0
M  V30 16 C -2.374 -1.2546 0.0 0
M  V30 17 C -1.624 -2.5536 0.0 0
M  V30 18 C 0.8469 -3.3565 0.0 0
M  V30 19 C -2.0875 -3.9802 0.0 0
M  V30 20 C 0.3833 -4.783 0.0 0
M  V30 21 C -1.0838 -5.0949 0.0 0
M  V30 22 C -1.5473 -6.5215 0.0 0
M  V30 23 C -0.5436 -7.6362 0.0 0
M  V30 24 S 0.9481 -7.4794 0.0 0
M  V30 25 C -0.8555 -9.1034 0.0 0
M  V30 26 C 1.5582 -8.8497 0.0 0
M  V30 27 O -2.2258 -9.7135 0.0 0
M  V30 28 N 0.4434 -9.8534 0.0 0
M  V30 29 O 3.0254 -9.1616 0.0 0
M  V30 30 C 0.6002 -11.3452 0.0 0 CFG=1
M  V30 31 C 1.9706 -11.9553 0.0 0 CFG=2
M  V30 32 C -0.6132 -12.2269 0.0 0
M  V30 33 F 3.1841 -11.0736 0.0 0
M  V30 34 C 2.1274 -13.4471 0.0 0
M  V30 35 C -0.4564 -13.7187 0.0 0
M  V30 36 N 0.9138 -14.3288 0.0 0
M  V30 37 C 1.0706 -15.8206 0.0 0
M  V30 END ATOM
M  V30 BEGIN BOND
M  V30 1 1 1 2
M  V30 2 2 2 3
M  V30 3 1 2 4
M  V30 4 1 3 5
M  V30 5 2 4 6
M  V30 6 2 5 7
M  V30 7 1 5 8
M  V30 8 1 7 9
M  V30 9 1 8 10
M  V30 10 1 8 11
M  V30 11 1 8 12
M  V30 12 1 9 13
M  V30 13 1 13 14
M  V30 14 1 13 15
M  V30 15 2 14 16
M  V30 16 2 15 17
M  V30 17 1 15 18
M  V30 18 1 17 19
M  V30 19 2 18 20
M  V30 20 2 19 21
M  V30 21 1 21 22
M  V30 22 2 22 23
M  V30 23 1 23 24
M  V30 24 1 23 25
M  V30 25 1 24 26
M  V30 26 2 25 27
M  V30 27 1 25 28
M  V30 28 2 26 29
M  V30 29 1 30 28 CFG=1
M  V30 30 1 30 31
M  V30 31 1 30 32
M  V30 32 1 31 33 CFG=3
M  V30 33 1 31 34
M  V30 34 1 32 35
M  V30 35 1 34 36
M  V30 36 1 36 37
M  V30 37 1 6 7
M  V30 38 1 16 17
M  V30 39 1 20 21
M  V30 40 1 26 28
M  V30 41 1 35 36
M  V30 END BOND
M  V30 BEGIN COLLECTION
M  V30 MDLV30/STEABS ATOMS=(2 30 31)
M  V30 END COLLECTION
M  V30 END CTAB
M  END
>  <Molecule ChEMBL ID>
CHEMBL4174856

>  <Smiles>
CN1CC[C@@H](N2C(=O)S/C(=C\c3ccc4c(cnn4Cc4ccc(Cl)cc4C(F)(F)F)c3)C2=O)[C@H](F)C1

>  <IC50_nM>
10000

>  <Assay Description>
Inhibition of fluormone PPARgamma Green binding to recombinant N-terminal GST-tagged human PPARgamma LBD by fluorescence polarization assay

$$$$
CHEMBL604959
Actelion Java MolfileCreator 2.0

  0  0  0  0  0  0              0 V3000
M  V30 BEGIN CTAB
M  V30 COUNTS 29 30 0 0 0
M  V30 BEGIN ATOM
M  V30 1 S 6.4952 0.0 0.0 0
M  V30 2 O 7.2452 1.299 0.0 0
M  V30 3 O 5.7451 1.299 0.0 0
M  V30 4 C 7.7942 -0.75 0.0 0
M  V30 5 C 5.1961 -0.75 0.0 0
M  V30 6 N 7.7942 -2.25 0.0 0
M  V30 7 C 9.0932 0.0 0.0 0
M  V30 8 C 3.8971 0.0 0.0 0
M  V30 9 C 9.0932 -3.0 0.0 0
M  V30 10 C 10.3923 -0.75 0.0 0
M  V30 11 N 2.598 -0.75 0.0 0
M  V30 12 C 10.3923 -2.25 0.0 0
M  V30 13 C 1.299 0.0 0.0 0
M  V30 14 C 11.6913 -3.0 0.0 0
M  V30 15 O 1.299 1.5 0.0 0
M  V30 16 C 0.0 -0.75 0.0 0
M  V30 17 F 12.4413 -1.7009 0.0 0
M  V30 18 F 12.9904 -3.75 0.0 0
M  V30 19 F 10.9413 -4.299 0.0 0
M  V30 20 C -1.299 0.0 0.0 0
M  V30 21 C 0.0 -2.25 0.0 0
M  V30 22 C -2.598 -0.75 0.0 0
M  V30 23 C -1.299 -3.0 0.0 0
M  V30 24 C -2.598 -2.25 0.0 0
M  V30 25 O -3.8971 -3.0 0.0 0
M  V30 26 C -3.8971 -4.5 0.0 0
M  V30 27 F -2.3971 -4.5 0.0 0
M  V30 28 F -3.8971 -6.0 0.0 0
M  V30 29 F -5.3971 -4.5 0.0 0
M  V30 END ATOM
M  V30 BEGIN BOND
M  V30 1 2 1 2
M  V30 2 2 1 3
M  V30 3 1 1 4
M  V30 4 1 1 5
M  V30 5 2 4 6
M  V30 6 1 4 7
M  V30 7 1 5 8
M  V30 8 1 6 9
M  V30 9 2 7 10
M  V30 10 1 8 11
M  V30 11 2 9 12
M  V30 12 1 11 13
M  V30 13 1 12 14
M  V30 14 2 13 15
M  V30 15 1 13 16
M  V30 16 1 14 17
M  V30 17 1 14 18
M  V30 18 1 14 19
M  V30 19 2 16 20
M  V30 20 1 16 21
M  V30 21 1 20 22
M  V30 22 2 21 23
M  V30 23 2 22 24
M  V30 24 1 24 25
M  V30 25 1 25 26
M  V30 26 1 26 27
M  V30 27 1 26 28
M  V30 28 1 26 29
M  V30 29 1 10 12
M  V30 30 1 23 24
M  V30 END BOND
M  V30 END CTAB
M  END
>  <Molecule ChEMBL ID>
CHEMBL604959

>  <Smiles>
O=C(NCCS(=O)(=O)c1ccc(C(F)(F)F)cn1)c1ccc(OC(F)(F)F)cc1

>  <IC50_nM>
10000

>  <Assay Description>
Inhibition of human PPARgamma receptor by ligand displacement assay

$$$$
CHEMBL598609
Actelion Java MolfileCreator 2.0

  0  0  0  0  0  0              0 V3000
M  V30 BEGIN CTAB
M  V30 COUNTS 30 32 0 0 0
M  V30 BEGIN ATOM
M  V30 1 S 6.4951 0.0 0.0 0
M  V30 2 O 7.2452 1.299 0.0 0
M  V30 3 O 5.7451 1.299 0.0 0
M  V30 4 C 7.7942 -0.75 0.0 0
M  V30 5 C 5.1961 -0.75 0.0 0
M  V30 6 N 7.7942 -2.25 0.0 0
M  V30 7 C 9.0932 0.0 0.0 0
M  V30 8 C 3.8971 0.0 0.0 0
M  V30 9 C 9.0932 -3.0 0.0 0
M  V30 10 C 10.3923 -0.75 0.0 0
M  V30 11 N 2.598 -0.75 0.0 0
M  V30 12 C 10.3923 -2.25 0.0 0
M  V30 13 C 1.299 0.0 0.0 0
M  V30 14 C 11.6913 -3.0 0.0 0
M  V30 15 O 1.299 1.5 0.0 0
M  V30 16 C 0.0 -0.75 0.0 0
M  V30 17 F 12.4413 -1.7009 0.0 0
M  V30 18 F 12.9903 -3.75 0.0 0
M  V30 19 F 10.9413 -4.299 0.0 0
M  V30 20 C -1.299 0.0 0.0 0
M  V30 21 C 0.0 -2.25 0.0 0
M  V30 22 C -2.598 -0.75 0.0 0
M  V30 23 C -1.299 -3.0 0.0 0
M  V30 24 C -2.598 -2.25 0.0 0
M  V30 25 C -3.8971 -3.0 0.0 0
M  V30 26 C -5.1961 -2.25 0.0 0
M  V30 27 C -3.8971 -4.5 0.0 0
M  V30 28 C -6.4951 -3.0 0.0 0
M  V30 29 C -5.1961 -5.25 0.0 0
M  V30 30 C -6.4951 -4.5 0.0 0
M  V30 END ATOM
M  V30 BEGIN BOND
M  V30 1 2 1 2
M  V30 2 2 1 3
M  V30 3 1 1 4
M  V30 4 1 1 5
M  V30 5 2 4 6
M  V30 6 1 4 7
M  V30 7 1 5 8
M  V30 8 1 6 9
M  V30 9 2 7 10
M  V30 10 1 8 11
M  V30 11 2 9 12
M  V30 12 1 11 13
M  V30 13 1 12 14
M  V30 14 2 13 15
M  V30 15 1 13 16
M  V30 16 1 14 17
M  V30 17 1 14 18
M  V30 18 1 14 19
M  V30 19 2 16 20
M  V30 20 1 16 21
M  V30 21 1 20 22
M  V30 22 2 21 23
M  V30 23 2 22 24
M  V30 24 1 24 25
M  V30 25 2 25 26
M  V30 26 1 25 27
M  V30 27 1 26 28
M  V30 28 2 27 29
M  V30 29 2 28 30
M  V30 30 1 10 12
M  V30 31 1 23 24
M  V30 32 1 29 30
M  V30 END BOND
M  V30 END CTAB
M  END
>  <Molecule ChEMBL ID>
CHEMBL598609

>  <Smiles>
O=C(NCCS(=O)(=O)c1ccc(C(F)(F)F)cn1)c1ccc(-c2ccccc2)cc1

>  <IC50_nM>
10000

>  <Assay Description>
Inhibition of human PPARgamma receptor by ligand displacement assay

$$$$
CHEMBL3598153
Actelion Java MolfileCreator 2.0

  0  0  0  0  0  0              0 V3000
M  V30 BEGIN CTAB
M  V30 COUNTS 31 34 0 0 0
M  V30 BEGIN ATOM
M  V30 1 Cl -0.866 0.9999 0.0 0
M  V30 2 C 0.0 1.4999 0.0 0
M  V30 3 C 0.866 0.9999 0.0 0
M  V30 4 C 0.0 2.4999 0.0 0
M  V30 5 C 1.732 1.5 0.0 0
M  V30 6 C 0.866 0.0 0.0 0
M  V30 7 C 0.866 3.0 0.0 0
M  V30 8 C 1.732 2.4999 0.0 0
M  V30 9 C 2.598 1.0 0.0 0
M  V30 10 O 1.732 -0.5 0.0 0
M  V30 11 C 0.0 -0.5 0.0 0
M  V30 12 F 3.098 1.866 0.0 0
M  V30 13 F 3.4641 0.5 0.0 0
M  V30 14 F 2.098 0.1339 0.0 0
M  V30 15 N -0.9135 -0.0932 0.0 0
M  V30 16 N -0.1045 -1.4945 0.0 0
M  V30 17 C -1.5826 -0.8364 0.0 0
M  V30 18 C -1.0826 -1.7024 0.0 0
M  V30 19 C 0.5646 -2.2376 0.0 0
M  V30 20 N -2.5771 -0.7318 0.0 0
M  V30 21 C -1.3916 -2.6534 0.0 0
M  V30 22 C 0.2555 -3.1887 0.0 0
M  V30 23 C -2.9839 0.1816 0.0 0
M  V30 24 C -3.1649 -1.5408 0.0 0
M  V30 25 C -0.7225 -3.3966 0.0 0
M  V30 26 C -3.9784 0.2861 0.0 0
M  V30 27 C -4.1595 -1.4363 0.0 0
M  V30 28 C -4.5662 -0.5228 0.0 0
M  V30 29 C -5.5607 -0.4182 0.0 0
M  V30 30 O -5.9675 0.4952 0.0 0
M  V30 31 O -6.1485 -1.2273 0.0 0
M  V30 END ATOM
M  V30 BEGIN BOND
M  V30 1 1 1 2
M  V30 2 2 2 3
M  V30 3 1 2 4
M  V30 4 1 3 5
M  V30 5 1 3 6
M  V30 6 2 4 7
M  V30 7 2 5 8
M  V30 8 1 5 9
M  V30 9 2 6 10
M  V30 10 1 6 11
M  V30 11 1 9 12
M  V30 12 1 9 13
M  V30 13 1 9 14
M  V30 14 2 11 15
M  V30 15 1 11 16
M  V30 16 1 15 17
M  V30 17 1 16 18
M  V30 18 1 16 19
M  V30 19 1 17 20
M  V30 20 1 18 21
M  V30 21 2 19 22
M  V30 22 1 20 23
M  V30 23 1 20 24
M  V30 24 2 21 25
M  V30 25 1 23 26
M  V30 26 1 24 27
M  V30 27 1 26 28
M  V30 28 1 28 29
M  V30 29 2 29 30
M  V30 30 1 29 31
M  V30 31 1 7 8
M  V30 32 2 17 18
M  V30 33 1 22 25
M  V30 34 1 27 28
M  V30 END BOND
M  V30 END CTAB
M  END
>  <Molecule ChEMBL ID>
CHEMBL3598153

>  <Smiles>
O=C(c1c(Cl)cccc1C(F)(F)F)c1nc(N2CCC(C(=O)O)CC2)c2ccccn12

>  <IC50_nM>
10000

>  <Assay Description>
Displacement of fluormone PPARgamma green from GST-tagged human PPARgamma-LBD after 2 hrs by fluorescence polarization assay

$$$$
CHEMBL3596269
Actelion Java MolfileCreator 2.0

  0  0  0  0  0  0              0 V3000
M  V30 BEGIN CTAB
M  V30 COUNTS 32 35 0 0 0
M  V30 BEGIN ATOM
M  V30 1 Cl -0.866 0.9999 0.0 0
M  V30 2 C 0.0 1.4999 0.0 0
M  V30 3 C 0.866 0.9999 0.0 0
M  V30 4 C 0.0 2.4999 0.0 0
M  V30 5 C 1.732 1.5 0.0 0
M  V30 6 C 0.866 0.0 0.0 0
M  V30 7 C 0.866 3.0 0.0 0
M  V30 8 C 1.732 2.4999 0.0 0
M  V30 9 C 2.598 1.0 0.0 0
M  V30 10 O 1.732 -0.5 0.0 0
M  V30 11 C 0.0 -0.5 0.0 0
M  V30 12 F 3.098 1.866 0.0 0
M  V30 13 F 3.4641 0.5 0.0 0
M  V30 14 F 2.098 0.1339 0.0 0
M  V30 15 N -0.9135 -0.0932 0.0 0
M  V30 16 N -0.1045 -1.4945 0.0 0
M  V30 17 C -1.5826 -0.8364 0.0 0
M  V30 18 C -1.0826 -1.7024 0.0 0
M  V30 19 C 0.5646 -2.2376 0.0 0
M  V30 20 N -2.5771 -0.7318 0.0 0
M  V30 21 C -1.3916 -2.6534 0.0 0
M  V30 22 C 0.2555 -3.1887 0.0 0
M  V30 23 C -2.9839 0.1816 0.0 0
M  V30 24 C -3.1649 -1.5408 0.0 0
M  V30 25 C -0.7225 -3.3966 0.0 0
M  V30 26 C -3.9784 0.2861 0.0 0 CFG=1
M  V30 27 C -4.1595 -1.4363 0.0 0
M  V30 28 O -4.3851 1.1997 0.0 0
M  V30 29 C -4.5662 -0.5228 0.0 0 CFG=1
M  V30 30 C -5.5607 -0.4182 0.0 0
M  V30 31 O -5.9675 0.4952 0.0 0
M  V30 32 O -6.1485 -1.2273 0.0 0
M  V30 END ATOM
M  V30 BEGIN BOND
M  V30 1 1 1 2
M  V30 2 2 2 3
M  V30 3 1 2 4
M  V30 4 1 3 5
M  V30 5 1 3 6
M  V30 6 2 4 7
M  V30 7 2 5 8
M  V30 8 1 5 9
M  V30 9 2 6 10
M  V30 10 1 6 11
M  V30 11 1 9 12
M  V30 12 1 9 13
M  V30 13 1 9 14
M  V30 14 2 11 15
M  V30 15 1 11 16
M  V30 16 1 15 17
M  V30 17 1 16 18
M  V30 18 1 16 19
M  V30 19 1 17 20
M  V30 20 1 18 21
M  V30 21 2 19 22
M  V30 22 1 20 23
M  V30 23 1 20 24
M  V30 24 2 21 25
M  V30 25 1 23 26
M  V30 26 1 24 27
M  V30 27 1 26 28 CFG=3
M  V30 28 1 26 29
M  V30 29 1 29 30 CFG=1
M  V30 30 2 30 31
M  V30 31 1 30 32
M  V30 32 1 7 8
M  V30 33 2 17 18
M  V30 34 1 22 25
M  V30 35 1 27 29
M  V30 END BOND
M  V30 BEGIN COLLECTION
M  V30 MDLV30/STEABS ATOMS=(2 26 29)
M  V30 END COLLECTION
M  V30 END CTAB
M  END
>  <Molecule ChEMBL ID>
CHEMBL3596269

>  <Smiles>
O=C(c1c(Cl)cccc1C(F)(F)F)c1nc(N2CC[C@@H](C(=O)O)[C@H](O)C2)c2ccccn12

>  <IC50_nM>
10000

>  <Assay Description>
Displacement of fluormone PPARgamma green from GST-tagged human PPARgamma-LBD after 2 hrs by fluorescence polarization assay

$$$$
CHEMBL495506
Actelion Java MolfileCreator 2.0

  0  0  0  0  0  0              0 V3000
M  V30 BEGIN CTAB
M  V30 COUNTS 32 35 0 0 0
M  V30 BEGIN ATOM
M  V30 1 S 5.1961 3.75 0.0 0
M  V30 2 O 4.4461 5.049 0.0 0
M  V30 3 O 3.6961 3.7499 0.0 0
M  V30 4 N 6.4951 4.5 0.0 0
M  V30 5 C 5.1961 2.25 0.0 0
M  V30 6 C 7.7942 3.75 0.0 0
M  V30 7 C 6.4951 6.0 0.0 0
M  V30 8 C 3.8971 1.5 0.0 0
M  V30 9 C 6.4951 1.5 0.0 0
M  V30 10 C 9.0932 4.5 0.0 0
M  V30 11 C 7.7942 6.75 0.0 0
M  V30 12 C 3.8971 0.0 0.0 0
M  V30 13 C 6.4951 0.0 0.0 0
M  V30 14 C 9.0932 6.0 0.0 0
M  V30 15 C 10.3923 3.75 0.0 0
M  V30 16 C 2.598 -0.75 0.0 0
M  V30 17 C 5.1961 -0.75 0.0 0
M  V30 18 C 10.3923 6.75 0.0 0
M  V30 19 C 11.6913 4.5 0.0 0
M  V30 20 O 2.598 -2.25 0.0 0
M  V30 21 N 1.299 0.0 0.0 0
M  V30 22 C 11.6913 6.0 0.0 0
M  V30 23 C 0.0 -0.75 0.0 0
M  V30 24 C -1.299 0.0 0.0 0
M  V30 25 C 0.0 -2.25 0.0 0
M  V30 26 C -2.598 -0.75 0.0 0
M  V30 27 C -1.299 1.5 0.0 0
M  V30 28 C -1.299 -3.0 0.0 0
M  V30 29 C -2.598 -2.25 0.0 0
M  V30 30 C -3.8971 0.0 0.0 0
M  V30 31 O 0.0 2.25 0.0 0
M  V30 32 O -2.598 2.25 0.0 0
M  V30 END ATOM
M  V30 BEGIN BOND
M  V30 1 2 1 2
M  V30 2 2 1 3
M  V30 3 1 1 4
M  V30 4 1 1 5
M  V30 5 1 4 6
M  V30 6 1 4 7
M  V30 7 2 5 8
M  V30 8 1 5 9
M  V30 9 1 6 10
M  V30 10 1 7 11
M  V30 11 1 8 12
M  V30 12 2 9 13
M  V30 13 2 10 14
M  V30 14 1 10 15
M  V30 15 1 12 16
M  V30 16 2 12 17
M  V30 17 1 14 18
M  V30 18 2 15 19
M  V30 19 2 16 20
M  V30 20 1 16 21
M  V30 21 2 18 22
M  V30 22 1 21 23
M  V30 23 2 23 24
M  V30 24 1 23 25
M  V30 25 1 24 26
M  V30 26 1 24 27
M  V30 27 2 25 28
M  V30 28 2 26 29
M  V30 29 1 26 30
M  V30 30 2 27 31
M  V30 31 1 27 32
M  V30 32 1 11 14
M  V30 33 1 13 17
M  V30 34 1 19 22
M  V30 35 1 28 29
M  V30 END BOND
M  V30 END CTAB
M  END
>  <Molecule ChEMBL ID>
CHEMBL495506

>  <Smiles>
Cc1cccc(NC(=O)c2cccc(S(=O)(=O)N3CCc4ccccc4C3)c2)c1C(=O)O

>  <IC50_nM>
10000

>  <Assay Description>
Displacement of radiolabeled ligand from human PPARgamma by competition-binding assay

$$$$
CHEMBL981
Actelion Java MolfileCreator 2.0

  0  0  0  0  0  0              0 V3000
M  V30 BEGIN CTAB
M  V30 COUNTS 22 23 0 0 0
M  V30 BEGIN ATOM
M  V30 1 Cl 9.0932 -9.0 0.0 0
M  V30 2 C 9.0932 -7.5 0.0 0
M  V30 3 C 10.3923 -6.75 0.0 0
M  V30 4 C 7.7942 -6.75 0.0 0
M  V30 5 C 10.3923 -5.25 0.0 0
M  V30 6 C 7.7942 -5.25 0.0 0
M  V30 7 C 9.0932 -4.5 0.0 0
M  V30 8 C 9.0932 -3.0 0.0 0
M  V30 9 O 10.3923 -2.25 0.0 0
M  V30 10 C 7.7942 -2.25 0.0 0
M  V30 11 C 7.7942 -0.75 0.0 0
M  V30 12 C 6.4952 -3.0 0.0 0
M  V30 13 C 6.4952 0.0 0.0 0
M  V30 14 C 5.1961 -2.25 0.0 0
M  V30 15 C 5.1961 -0.75 0.0 0
M  V30 16 O 3.8971 0.0 0.0 0
M  V30 17 C 2.598 -0.75 0.0 0
M  V30 18 C 1.299 0.0 0.0 0
M  V30 19 C 1.848 -2.049 0.0 0
M  V30 20 C 3.348 -2.049 0.0 0
M  V30 21 O 1.299 1.5 0.0 0
M  V30 22 O 0.0 -0.75 0.0 0
M  V30 END ATOM
M  V30 BEGIN BOND
M  V30 1 1 1 2
M  V30 2 2 2 3
M  V30 3 1 2 4
M  V30 4 1 3 5
M  V30 5 2 4 6
M  V30 6 2 5 7
M  V30 7 1 7 8
M  V30 8 2 8 9
M  V30 9 1 8 10
M  V30 10 2 10 11
M  V30 11 1 10 12
M  V30 12 1 11 13
M  V30 13 2 12 14
M  V30 14 2 13 15
M  V30 15 1 15 16
M  V30 16 1 16 17
M  V30 17 1 17 18
M  V30 18 1 17 19
M  V30 19 1 17 20
M  V30 20 2 18 21
M  V30 21 1 18 22
M  V30 22 1 6 7
M  V30 23 1 14 15
M  V30 END BOND
M  V30 END CTAB
M  END
>  <Molecule ChEMBL ID>
CHEMBL981

>  <Smiles>
CC(C)(Oc1ccc(C(=O)c2ccc(Cl)cc2)cc1)C(=O)O

>  <IC50_nM>
10000

>  <Assay Description>
Displacement of tritium labeled ligand from human PPARgamma by SPA assay

$$$$
CHEMBL981
Actelion Java MolfileCreator 2.0

  0  0  0  0  0  0              0 V3000
M  V30 BEGIN CTAB
M  V30 COUNTS 22 23 0 0 0
M  V30 BEGIN ATOM
M  V30 1 Cl 9.0932 -9.0 0.0 0
M  V30 2 C 9.0932 -7.5 0.0 0
M  V30 3 C 10.3923 -6.75 0.0 0
M  V30 4 C 7.7942 -6.75 0.0 0
M  V30 5 C 10.3923 -5.25 0.0 0
M  V30 6 C 7.7942 -5.25 0.0 0
M  V30 7 C 9.0932 -4.5 0.0 0
M  V30 8 C 9.0932 -3.0 0.0 0
M  V30 9 O 10.3923 -2.25 0.0 0
M  V30 10 C 7.7942 -2.25 0.0 0
M  V30 11 C 7.7942 -0.75 0.0 0
M  V30 12 C 6.4952 -3.0 0.0 0
M  V30 13 C 6.4952 0.0 0.0 0
M  V30 14 C 5.1961 -2.25 0.0 0
M  V30 15 C 5.1961 -0.75 0.0 0
M  V30 16 O 3.8971 0.0 0.0 0
M  V30 17 C 2.598 -0.75 0.0 0
M  V30 18 C 1.299 0.0 0.0 0
M  V30 19 C 1.848 -2.049 0.0 0
M  V30 20 C 3.348 -2.049 0.0 0
M  V30 21 O 1.299 1.5 0.0 0
M  V30 22 O 0.0 -0.75 0.0 0
M  V30 END ATOM
M  V30 BEGIN BOND
M  V30 1 1 1 2
M  V30 2 2 2 3
M  V30 3 1 2 4
M  V30 4 1 3 5
M  V30 5 2 4 6
M  V30 6 2 5 7
M  V30 7 1 7 8
M  V30 8 2 8 9
M  V30 9 1 8 10
M  V30 10 2 10 11
M  V30 11 1 10 12
M  V30 12 1 11 13
M  V30 13 2 12 14
M  V30 14 2 13 15
M  V30 15 1 15 16
M  V30 16 1 16 17
M  V30 17 1 17 18
M  V30 18 1 17 19
M  V30 19 1 17 20
M  V30 20 2 18 21
M  V30 21 1 18 22
M  V30 22 1 6 7
M  V30 23 1 14 15
M  V30 END BOND
M  V30 END CTAB
M  END
>  <Molecule ChEMBL ID>
CHEMBL981

>  <Smiles>
CC(C)(Oc1ccc(C(=O)c2ccc(Cl)cc2)cc1)C(=O)O

>  <IC50_nM>
10000

>  <Assay Description>
Displacement of [3H]2-methyl-2-(4-{3-propyl-(5-pyridin-2yl-thiophene-2-sulfonyl)-amino]-pro-pyl}-phenoxy)-propionic acid from human PPARgamma

$$$$
CHEMBL3596277
Actelion Java MolfileCreator 2.0

  0  0  0  0  0  0              0 V3000
M  V30 BEGIN CTAB
M  V30 COUNTS 33 36 0 0 0
M  V30 BEGIN ATOM
M  V30 1 F 2.598 -3.0 0.0 0
M  V30 2 C 2.598 -1.9999 0.0 0
M  V30 3 C 3.4641 -1.5 0.0 0
M  V30 4 C 1.732 -1.5 0.0 0
M  V30 5 C 4.3301 -2.0 0.0 0
M  V30 6 C 3.4641 -0.5 0.0 0
M  V30 7 C 1.732 -0.5 0.0 0
M  V30 8 N 4.4346 -2.9945 0.0 0
M  V30 9 C 5.2436 -1.5932 0.0 0
M  V30 10 C 2.598 0.0 0.0 0
M  V30 11 C 0.866 0.0 0.0 0
M  V30 12 C 5.4128 -3.2024 0.0 0
M  V30 13 N 5.9128 -2.3364 0.0 0
M  V30 14 C 5.5526 -0.6422 0.0 0
M  V30 15 O 0.866 1.0 0.0 0
M  V30 16 O 0.0 -0.5 0.0 0
M  V30 17 C 5.8195 -4.1159 0.0 0
M  V30 18 C 6.8909 -2.1284 0.0 0
M  V30 19 C 6.5308 -0.4342 0.0 0
M  V30 20 O 6.814 -4.2205 0.0 0
M  V30 21 C 5.2317 -4.9249 0.0 0
M  V30 22 C 7.1999 -1.1774 0.0 0
M  V30 23 C 4.2372 -4.8204 0.0 0
M  V30 24 C 5.6384 -5.8385 0.0 0
M  V30 25 C 3.8304 -3.9069 0.0 0
M  V30 26 C 3.6494 -5.6294 0.0 0
M  V30 27 C 5.0507 -6.6475 0.0 0
M  V30 28 C 6.633 -5.943 0.0 0
M  V30 29 N 3.4237 -2.9933 0.0 0
M  V30 30 C 4.0561 -6.543 0.0 0
M  V30 31 F 6.7375 -4.9485 0.0 0
M  V30 32 F 7.6275 -6.0475 0.0 0
M  V30 33 F 6.5284 -6.9375 0.0 0
M  V30 END ATOM
M  V30 BEGIN BOND
M  V30 1 1 1 2
M  V30 2 2 2 3
M  V30 3 1 2 4
M  V30 4 1 3 5
M  V30 5 1 3 6
M  V30 6 2 4 7
M  V30 7 1 5 8
M  V30 8 2 5 9
M  V30 9 2 6 10
M  V30 10 1 7 11
M  V30 11 2 8 12
M  V30 12 1 9 13
M  V30 13 1 9 14
M  V30 14 2 11 15
M  V30 15 1 11 16
M  V30 16 1 12 17
M  V30 17 1 13 18
M  V30 18 1 14 19
M  V30 19 2 17 20
M  V30 20 1 17 21
M  V30 21 1 18 22
M  V30 22 2 21 23
M  V30 23 1 21 24
M  V30 24 1 23 25
M  V30 25 1 23 26
M  V30 26 2 24 27
M  V30 27 1 24 28
M  V30 28 3 25 29
M  V30 29 2 26 30
M  V30 30 1 28 31
M  V30 31 1 28 32
M  V30 32 1 28 33
M  V30 33 1 7 10
M  V30 34 1 12 13
M  V30 35 1 19 22
M  V30 36 1 27 30
M  V30 END BOND
M  V30 END CTAB
M  END
>  <Molecule ChEMBL ID>
CHEMBL3596277

>  <Smiles>
N#Cc1cccc(C(F)(F)F)c1C(=O)c1nc(-c2ccc(C(=O)O)cc2F)c2n1CCCC2

>  <IC50_nM>
10000

>  <Assay Description>
Displacement of fluormone PPARgamma green from GST-tagged human PPARgamma-LBD after 2 hrs by fluorescence polarization assay

$$$$
CHEMBL597956
Actelion Java MolfileCreator 2.0

  0  0  0  0  0  0              0 V3000
M  V30 BEGIN CTAB
M  V30 COUNTS 30 32 0 0 0
M  V30 BEGIN ATOM
M  V30 1 S 6.4951 0.0 0.0 0
M  V30 2 O 7.2452 1.299 0.0 0
M  V30 3 O 5.7451 1.299 0.0 0
M  V30 4 C 7.7942 -0.75 0.0 0
M  V30 5 C 5.1961 -0.75 0.0 0
M  V30 6 N 7.7942 -2.25 0.0 0
M  V30 7 C 9.0932 0.0 0.0 0
M  V30 8 C 3.8971 0.0 0.0 0
M  V30 9 C 9.0932 -3.0 0.0 0
M  V30 10 C 10.3923 -0.75 0.0 0
M  V30 11 N 2.598 -0.75 0.0 0
M  V30 12 C 10.3923 -2.25 0.0 0
M  V30 13 C 1.299 0.0 0.0 0
M  V30 14 C 11.6913 -3.0 0.0 0
M  V30 15 O 1.299 1.5 0.0 0
M  V30 16 C 0.0 -0.75 0.0 0
M  V30 17 F 12.4413 -1.7009 0.0 0
M  V30 18 F 12.9903 -3.75 0.0 0
M  V30 19 F 10.9413 -4.299 0.0 0
M  V30 20 C -1.299 0.0 0.0 0
M  V30 21 C 0.0 -2.25 0.0 0
M  V30 22 C -2.598 -0.75 0.0 0
M  V30 23 C -1.299 -3.0 0.0 0
M  V30 24 C -2.598 -2.25 0.0 0
M  V30 25 C -3.8971 -3.0 0.0 0
M  V30 26 C -5.1961 -2.25 0.0 0
M  V30 27 C -3.8971 -4.5 0.0 0
M  V30 28 C -6.4951 -3.0 0.0 0
M  V30 29 C -5.1961 -5.25 0.0 0
M  V30 30 C -6.4951 -4.5 0.0 0
M  V30 END ATOM
M  V30 BEGIN BOND
M  V30 1 2 1 2
M  V30 2 2 1 3
M  V30 3 1 1 4
M  V30 4 1 1 5
M  V30 5 2 4 6
M  V30 6 1 4 7
M  V30 7 1 5 8
M  V30 8 1 6 9
M  V30 9 2 7 10
M  V30 10 1 8 11
M  V30 11 2 9 12
M  V30 12 1 11 13
M  V30 13 1 12 14
M  V30 14 2 13 15
M  V30 15 1 13 16
M  V30 16 1 14 17
M  V30 17 1 14 18
M  V30 18 1 14 19
M  V30 19 2 16 20
M  V30 20 1 16 21
M  V30 21 1 20 22
M  V30 22 2 21 23
M  V30 23 2 22 24
M  V30 24 1 24 25
M  V30 25 1 25 26
M  V30 26 1 25 27
M  V30 27 1 26 28
M  V30 28 1 27 29
M  V30 29 1 28 30
M  V30 30 1 10 12
M  V30 31 1 23 24
M  V30 32 1 29 30
M  V30 END BOND
M  V30 END CTAB
M  END
>  <Molecule ChEMBL ID>
CHEMBL597956

>  <Smiles>
O=C(NCCS(=O)(=O)c1ccc(C(F)(F)F)cn1)c1ccc(C2CCCCC2)cc1

>  <IC50_nM>
10000

>  <Assay Description>
Inhibition of human PPARgamma receptor by ligand displacement assay

$$$$
CHEMBL5191702
Actelion Java MolfileCreator 2.0

  0  0  0  0  0  0              0 V3000
M  V30 BEGIN CTAB
M  V30 COUNTS 19 20 0 0 0
M  V30 BEGIN ATOM
M  V30 1 S 1.732 -0.5 0.0 0
M  V30 2 C 2.598 0.0 0.0 0
M  V30 3 C 0.866 0.0 0.0 0
M  V30 4 C 3.4641 -0.4999 0.0 0
M  V30 5 C 2.598 0.9999 0.0 0
M  V30 6 C 0.0 -0.5 0.0 0
M  V30 7 C 4.3301 0.0 0.0 0
M  V30 8 C 3.4641 1.5 0.0 0
M  V30 9 N -0.866 0.0 0.0 0
M  V30 10 C 0.0 -1.4999 0.0 0
M  V30 11 C 4.3301 1.0 0.0 0
M  V30 12 C -1.732 -0.4999 0.0 0
M  V30 13 N -0.866 -1.9999 0.0 0
M  V30 14 C 5.1961 1.5 0.0 0
M  V30 15 O -2.598 0.0 0.0 0
M  V30 16 C -1.732 -1.4999 0.0 0
M  V30 17 F 6.0621 1.0 0.0 0
M  V30 18 F 5.1961 2.5 0.0 0
M  V30 19 O -2.598 -1.9999 0.0 0
M  V30 END ATOM
M  V30 BEGIN BOND
M  V30 1 1 1 2
M  V30 2 1 1 3
M  V30 3 2 2 4
M  V30 4 1 2 5
M  V30 5 1 3 6
M  V30 6 1 4 7
M  V30 7 2 5 8
M  V30 8 1 6 9
M  V30 9 2 6 10
M  V30 10 2 7 11
M  V30 11 1 9 12
M  V30 12 1 10 13
M  V30 13 1 11 14
M  V30 14 2 12 15
M  V30 15 1 12 16
M  V30 16 1 14 17
M  V30 17 1 14 18
M  V30 18 2 16 19
M  V30 19 1 8 11
M  V30 20 1 13 16
M  V30 END BOND
M  V30 END CTAB
M  END
>  <Molecule ChEMBL ID>
CHEMBL5191702

>  <Smiles>
O=c1[nH]cc(CSc2ccc(C(F)F)cc2)[nH]c1=O

>  <IC50_nM>
10000

>  <Assay Description>
Inhibition of recombinant human PPAR gamma NHR incubated for 120 mins by scintillation counting based radiometry assay

$$$$
CHEMBL598608
Actelion Java MolfileCreator 2.0

  0  0  0  0  0  0              0 V3000
M  V30 BEGIN CTAB
M  V30 COUNTS 25 26 0 0 0
M  V30 BEGIN ATOM
M  V30 1 Cl 11.6913 -3.0 0.0 0
M  V30 2 C 10.3923 -2.25 0.0 0
M  V30 3 C 10.3923 -0.75 0.0 0
M  V30 4 C 9.0932 -3.0 0.0 0
M  V30 5 C 9.0932 0.0 0.0 0
M  V30 6 C 7.7942 -2.25 0.0 0
M  V30 7 C 7.7942 -0.75 0.0 0
M  V30 8 C 6.4952 0.0 0.0 0
M  V30 9 O 6.4952 1.5 0.0 0
M  V30 10 N 5.1961 -0.75 0.0 0
M  V30 11 C 3.8971 0.0 0.0 0
M  V30 12 C 2.598 -0.75 0.0 0
M  V30 13 S 1.299 0.0 0.0 0
M  V30 14 O 2.049 1.299 0.0 0
M  V30 15 O 0.549 1.299 0.0 0
M  V30 16 C 0.0 -0.75 0.0 0
M  V30 17 N -1.299 0.0 0.0 0
M  V30 18 C 0.0 -2.25 0.0 0
M  V30 19 C -2.598 -0.75 0.0 0
M  V30 20 C -1.299 -3.0 0.0 0
M  V30 21 C -2.598 -2.25 0.0 0
M  V30 22 C -3.8971 -3.0 0.0 0
M  V30 23 F -3.1471 -4.299 0.0 0
M  V30 24 F -5.1961 -3.75 0.0 0
M  V30 25 F -4.6471 -1.7009 0.0 0
M  V30 END ATOM
M  V30 BEGIN BOND
M  V30 1 1 1 2
M  V30 2 2 2 3
M  V30 3 1 2 4
M  V30 4 1 3 5
M  V30 5 2 4 6
M  V30 6 2 5 7
M  V30 7 1 7 8
M  V30 8 2 8 9
M  V30 9 1 8 10
M  V30 10 1 10 11
M  V30 11 1 11 12
M  V30 12 1 12 13
M  V30 13 2 13 14
M  V30 14 2 13 15
M  V30 15 1 13 16
M  V30 16 2 16 17
M  V30 17 1 16 18
M  V30 18 1 17 19
M  V30 19 2 18 20
M  V30 20 2 19 21
M  V30 21 1 21 22
M  V30 22 1 22 23
M  V30 23 1 22 24
M  V30 24 1 22 25
M  V30 25 1 6 7
M  V30 26 1 20 21
M  V30 END BOND
M  V30 END CTAB
M  END
>  <Molecule ChEMBL ID>
CHEMBL598608

>  <Smiles>
O=C(NCCS(=O)(=O)c1ccc(C(F)(F)F)cn1)c1ccc(Cl)cc1

>  <IC50_nM>
10000

>  <Assay Description>
Inhibition of human PPARgamma receptor by ligand displacement assay

$$$$
CHEMBL525552
Actelion Java MolfileCreator 2.0

  0  0  0  0  0  0              0 V3000
M  V30 BEGIN CTAB
M  V30 COUNTS 33 36 0 0 0
M  V30 BEGIN ATOM
M  V30 1 S 5.1961 3.75 0.0 0
M  V30 2 O 4.4461 5.049 0.0 0
M  V30 3 O 3.6961 3.7499 0.0 0
M  V30 4 N 6.4951 4.5 0.0 0
M  V30 5 C 5.1961 2.25 0.0 0
M  V30 6 C 7.8655 3.8898 0.0 0
M  V30 7 C 6.6519 5.9917 0.0 0
M  V30 8 C 3.8971 1.5 0.0 0
M  V30 9 C 6.4951 1.5 0.0 0
M  V30 10 C 8.8692 5.0046 0.0 0
M  V30 11 C 8.329 2.4633 0.0 0
M  V30 12 C 8.1192 6.3036 0.0 0
M  V30 13 C 3.8971 0.0 0.0 0
M  V30 14 C 6.4951 0.0 0.0 0
M  V30 15 C 10.3364 4.6927 0.0 0
M  V30 16 C 9.7962 2.1514 0.0 0
M  V30 17 C 2.598 -0.75 0.0 0
M  V30 18 C 5.1961 -0.75 0.0 0
M  V30 19 C 10.7999 3.2661 0.0 0
M  V30 20 O 2.598 -2.25 0.0 0
M  V30 21 N 1.299 0.0 0.0 0
M  V30 22 O 12.2671 2.9542 0.0 0
M  V30 23 C 0.0 -0.75 0.0 0
M  V30 24 C 13.2708 4.069 0.0 0
M  V30 25 C -1.299 0.0 0.0 0
M  V30 26 C 0.0 -2.25 0.0 0
M  V30 27 C -1.299 1.5 0.0 0
M  V30 28 C -2.598 -0.75 0.0 0
M  V30 29 C -1.299 -3.0 0.0 0
M  V30 30 O 0.0 2.25 0.0 0
M  V30 31 O -2.598 2.25 0.0 0
M  V30 32 C -2.598 -2.25 0.0 0
M  V30 33 C -3.8971 -3.0 0.0 0
M  V30 END ATOM
M  V30 BEGIN BOND
M  V30 1 2 1 2
M  V30 2 2 1 3
M  V30 3 1 1 4
M  V30 4 1 1 5
M  V30 5 1 4 6
M  V30 6 1 4 7
M  V30 7 2 5 8
M  V30 8 1 5 9
M  V30 9 2 6 10
M  V30 10 1 6 11
M  V30 11 2 7 12
M  V30 12 1 8 13
M  V30 13 2 9 14
M  V30 14 1 10 15
M  V30 15 2 11 16
M  V30 16 1 13 17
M  V30 17 2 13 18
M  V30 18 2 15 19
M  V30 19 2 17 20
M  V30 20 1 17 21
M  V30 21 1 19 22
M  V30 22 1 21 23
M  V30 23 1 22 24
M  V30 24 2 23 25
M  V30 25 1 23 26
M  V30 26 1 25 27
M  V30 27 1 25 28
M  V30 28 2 26 29
M  V30 29 2 27 30
M  V30 30 1 27 31
M  V30 31 2 28 32
M  V30 32 1 32 33
M  V30 33 1 10 12
M  V30 34 1 14 18
M  V30 35 1 16 19
M  V30 36 1 29 32
M  V30 END BOND
M  V30 END CTAB
M  END
>  <Molecule ChEMBL ID>
CHEMBL525552

>  <Smiles>
COc1ccc2c(ccn2S(=O)(=O)c2cccc(C(=O)Nc3ccc(C)cc3C(=O)O)c2)c1

>  <IC50_nM>
10000

>  <Assay Description>
Agonist activity at PPARgamma

$$$$
CHEMBL525552
Actelion Java MolfileCreator 2.0

  0  0  0  0  0  0              0 V3000
M  V30 BEGIN CTAB
M  V30 COUNTS 33 36 0 0 0
M  V30 BEGIN ATOM
M  V30 1 S 5.1961 3.75 0.0 0
M  V30 2 O 4.4461 5.049 0.0 0
M  V30 3 O 3.6961 3.7499 0.0 0
M  V30 4 N 6.4951 4.5 0.0 0
M  V30 5 C 5.1961 2.25 0.0 0
M  V30 6 C 7.8655 3.8898 0.0 0
M  V30 7 C 6.6519 5.9917 0.0 0
M  V30 8 C 3.8971 1.5 0.0 0
M  V30 9 C 6.4951 1.5 0.0 0
M  V30 10 C 8.8692 5.0046 0.0 0
M  V30 11 C 8.329 2.4633 0.0 0
M  V30 12 C 8.1192 6.3036 0.0 0
M  V30 13 C 3.8971 0.0 0.0 0
M  V30 14 C 6.4951 0.0 0.0 0
M  V30 15 C 10.3364 4.6927 0.0 0
M  V30 16 C 9.7962 2.1514 0.0 0
M  V30 17 C 2.598 -0.75 0.0 0
M  V30 18 C 5.1961 -0.75 0.0 0
M  V30 19 C 10.7999 3.2661 0.0 0
M  V30 20 O 2.598 -2.25 0.0 0
M  V30 21 N 1.299 0.0 0.0 0
M  V30 22 O 12.2671 2.9542 0.0 0
M  V30 23 C 0.0 -0.75 0.0 0
M  V30 24 C 13.2708 4.069 0.0 0
M  V30 25 C -1.299 0.0 0.0 0
M  V30 26 C 0.0 -2.25 0.0 0
M  V30 27 C -1.299 1.5 0.0 0
M  V30 28 C -2.598 -0.75 0.0 0
M  V30 29 C -1.299 -3.0 0.0 0
M  V30 30 O 0.0 2.25 0.0 0
M  V30 31 O -2.598 2.25 0.0 0
M  V30 32 C -2.598 -2.25 0.0 0
M  V30 33 C -3.8971 -3.0 0.0 0
M  V30 END ATOM
M  V30 BEGIN BOND
M  V30 1 2 1 2
M  V30 2 2 1 3
M  V30 3 1 1 4
M  V30 4 1 1 5
M  V30 5 1 4 6
M  V30 6 1 4 7
M  V30 7 2 5 8
M  V30 8 1 5 9
M  V30 9 2 6 10
M  V30 10 1 6 11
M  V30 11 2 7 12
M  V30 12 1 8 13
M  V30 13 2 9 14
M  V30 14 1 10 15
M  V30 15 2 11 16
M  V30 16 1 13 17
M  V30 17 2 13 18
M  V30 18 2 15 19
M  V30 19 2 17 20
M  V30 20 1 17 21
M  V30 21 1 19 22
M  V30 22 1 21 23
M  V30 23 1 22 24
M  V30 24 2 23 25
M  V30 25 1 23 26
M  V30 26 1 25 27
M  V30 27 1 25 28
M  V30 28 2 26 29
M  V30 29 2 27 30
M  V30 30 1 27 31
M  V30 31 2 28 32
M  V30 32 1 32 33
M  V30 33 1 10 12
M  V30 34 1 14 18
M  V30 35 1 16 19
M  V30 36 1 29 32
M  V30 END BOND
M  V30 END CTAB
M  END
>  <Molecule ChEMBL ID>
CHEMBL525552

>  <Smiles>
COc1ccc2c(ccn2S(=O)(=O)c2cccc(C(=O)Nc3ccc(C)cc3C(=O)O)c2)c1

>  <IC50_nM>
10000

>  <Assay Description>
Agonist activity at PPARgamma

$$$$
CHEMBL5178658
Actelion Java MolfileCreator 2.0

  0  0  0  0  0  0              0 V3000
M  V30 BEGIN CTAB
M  V30 COUNTS 20 21 0 0 0
M  V30 BEGIN ATOM
M  V30 1 S 1.732 -0.5 0.0 0
M  V30 2 C 2.598 0.0 0.0 0
M  V30 3 C 0.866 0.0 0.0 0
M  V30 4 C 3.4641 -0.4999 0.0 0
M  V30 5 C 2.598 0.9999 0.0 0
M  V30 6 C 0.0 -0.5 0.0 0
M  V30 7 C 4.3301 0.0 0.0 0
M  V30 8 C 3.4641 1.5 0.0 0
M  V30 9 N -0.866 0.0 0.0 0
M  V30 10 C 0.0 -1.4999 0.0 0
M  V30 11 C 4.3301 1.0 0.0 0
M  V30 12 C -1.732 -0.4999 0.0 0
M  V30 13 N -0.866 -1.9999 0.0 0
M  V30 14 C 5.1961 1.5 0.0 0
M  V30 15 O -2.598 0.0 0.0 0
M  V30 16 C -1.732 -1.4999 0.0 0
M  V30 17 F 4.6961 2.366 0.0 0
M  V30 18 F 6.0621 2.0 0.0 0
M  V30 19 F 5.6961 0.6339 0.0 0
M  V30 20 O -2.598 -1.9999 0.0 0
M  V30 END ATOM
M  V30 BEGIN BOND
M  V30 1 1 1 2
M  V30 2 1 1 3
M  V30 3 2 2 4
M  V30 4 1 2 5
M  V30 5 1 3 6
M  V30 6 1 4 7
M  V30 7 2 5 8
M  V30 8 1 6 9
M  V30 9 2 6 10
M  V30 10 2 7 11
M  V30 11 1 9 12
M  V30 12 1 10 13
M  V30 13 1 11 14
M  V30 14 2 12 15
M  V30 15 1 12 16
M  V30 16 1 14 17
M  V30 17 1 14 18
M  V30 18 1 14 19
M  V30 19 2 16 20
M  V30 20 1 8 11
M  V30 21 1 13 16
M  V30 END BOND
M  V30 END CTAB
M  END
>  <Molecule ChEMBL ID>
CHEMBL5178658

>  <Smiles>
O=c1[nH]cc(CSc2ccc(C(F)(F)F)cc2)[nH]c1=O

>  <IC50_nM>
10000

>  <Assay Description>
Inhibition of recombinant human PPAR gamma NHR incubated for 120 mins by scintillation counting based radiometry assay

$$$$
CHEMBL981
Actelion Java MolfileCreator 2.0

  0  0  0  0  0  0              0 V3000
M  V30 BEGIN CTAB
M  V30 COUNTS 22 23 0 0 0
M  V30 BEGIN ATOM
M  V30 1 Cl 9.0932 -9.0 0.0 0
M  V30 2 C 9.0932 -7.5 0.0 0
M  V30 3 C 10.3923 -6.75 0.0 0
M  V30 4 C 7.7942 -6.75 0.0 0
M  V30 5 C 10.3923 -5.25 0.0 0
M  V30 6 C 7.7942 -5.25 0.0 0
M  V30 7 C 9.0932 -4.5 0.0 0
M  V30 8 C 9.0932 -3.0 0.0 0
M  V30 9 O 10.3923 -2.25 0.0 0
M  V30 10 C 7.7942 -2.25 0.0 0
M  V30 11 C 7.7942 -0.75 0.0 0
M  V30 12 C 6.4952 -3.0 0.0 0
M  V30 13 C 6.4952 0.0 0.0 0
M  V30 14 C 5.1961 -2.25 0.0 0
M  V30 15 C 5.1961 -0.75 0.0 0
M  V30 16 O 3.8971 0.0 0.0 0
M  V30 17 C 2.598 -0.75 0.0 0
M  V30 18 C 1.299 0.0 0.0 0
M  V30 19 C 1.848 -2.049 0.0 0
M  V30 20 C 3.348 -2.049 0.0 0
M  V30 21 O 1.299 1.5 0.0 0
M  V30 22 O 0.0 -0.75 0.0 0
M  V30 END ATOM
M  V30 BEGIN BOND
M  V30 1 1 1 2
M  V30 2 2 2 3
M  V30 3 1 2 4
M  V30 4 1 3 5
M  V30 5 2 4 6
M  V30 6 2 5 7
M  V30 7 1 7 8
M  V30 8 2 8 9
M  V30 9 1 8 10
M  V30 10 2 10 11
M  V30 11 1 10 12
M  V30 12 1 11 13
M  V30 13 2 12 14
M  V30 14 2 13 15
M  V30 15 1 15 16
M  V30 16 1 16 17
M  V30 17 1 17 18
M  V30 18 1 17 19
M  V30 19 1 17 20
M  V30 20 2 18 21
M  V30 21 1 18 22
M  V30 22 1 6 7
M  V30 23 1 14 15
M  V30 END BOND
M  V30 END CTAB
M  END
>  <Molecule ChEMBL ID>
CHEMBL981

>  <Smiles>
CC(C)(Oc1ccc(C(=O)c2ccc(Cl)cc2)cc1)C(=O)O

>  <IC50_nM>
10000

>  <Assay Description>
Mean inhibitory concentration against human peroxisome proliferator-activated receptor gamma

$$$$
CHEMBL247920
Actelion Java MolfileCreator 2.0

  0  0  0  0  0  0              0 V3000
M  V30 BEGIN CTAB
M  V30 COUNTS 36 40 0 0 0
M  V30 BEGIN ATOM
M  V30 1 O -3.8971 -7.4999 0.0 0
M  V30 2 C -2.598 -6.7499 0.0 0
M  V30 3 O -1.299 -7.5 0.0 0
M  V30 4 C -2.598 -5.2499 0.0 0
M  V30 5 O -1.299 -4.5 0.0 0
M  V30 6 C -1.299 -3.0 0.0 0
M  V30 7 C -2.598 -2.25 0.0 0
M  V30 8 C 0.0 -2.25 0.0 0
M  V30 9 C -2.598 -0.7499 0.0 0
M  V30 10 C 0.0 -0.75 0.0 0
M  V30 11 C -3.8971 0.0 0.0 0
M  V30 12 C -1.299 0.0 0.0 0
M  V30 13 C -3.8971 1.5 0.0 0
M  V30 14 C -5.1961 -0.7499 0.0 0
M  V30 15 N -2.598 2.25 0.0 0
M  V30 16 C -5.1961 2.25 0.0 0
M  V30 17 C -6.4951 0.0 0.0 0
M  V30 18 N -1.2277 1.6398 0.0 0
M  V30 19 C -2.4412 3.7417 0.0 0
M  V30 20 C -6.4951 1.5 0.0 0
M  V30 21 C -0.224 2.7546 0.0 0
M  V30 22 C -0.974 4.0536 0.0 0
M  V30 23 C -3.556 4.7454 0.0 0
M  V30 24 C 1.2677 2.5978 0.0 0
M  V30 25 C -0.3639 5.4239 0.0 0
M  V30 26 C -4.9825 4.2819 0.0 0
M  V30 27 C 1.8778 1.2275 0.0 0
M  V30 28 C 2.1493 3.8113 0.0 0
M  V30 29 C 1.1278 5.5807 0.0 0
M  V30 30 C -1.2456 6.6374 0.0 0
M  V30 31 C 3.3696 1.0707 0.0 0
M  V30 32 C 3.6411 3.6545 0.0 0
M  V30 33 C 1.7379 6.951 0.0 0
M  V30 34 C -0.6355 8.0078 0.0 0
M  V30 35 C 4.2512 2.2842 0.0 0
M  V30 36 C 0.8562 8.1646 0.0 0
M  V30 END ATOM
M  V30 BEGIN BOND
M  V30 1 2 1 2
M  V30 2 1 2 3
M  V30 3 1 2 4
M  V30 4 1 4 5
M  V30 5 1 5 6
M  V30 6 2 6 7
M  V30 7 1 6 8
M  V30 8 1 7 9
M  V30 9 2 8 10
M  V30 10 1 9 11
M  V30 11 2 9 12
M  V30 12 2 11 13
M  V30 13 1 11 14
M  V30 14 1 13 15
M  V30 15 1 13 16
M  V30 16 2 14 17
M  V30 17 1 15 18
M  V30 18 1 15 19
M  V30 19 2 16 20
M  V30 20 2 18 21
M  V30 21 2 19 22
M  V30 22 1 19 23
M  V30 23 1 21 24
M  V30 24 1 22 25
M  V30 25 1 23 26
M  V30 26 2 24 27
M  V30 27 1 24 28
M  V30 28 2 25 29
M  V30 29 1 25 30
M  V30 30 1 27 31
M  V30 31 2 28 32
M  V30 32 1 29 33
M  V30 33 2 30 34
M  V30 34 2 31 35
M  V30 35 2 33 36
M  V30 36 1 10 12
M  V30 37 1 17 20
M  V30 38 1 21 22
M  V30 39 1 32 35
M  V30 40 1 34 36
M  V30 END BOND
M  V30 END CTAB
M  END
>  <Molecule ChEMBL ID>
CHEMBL247920

>  <Smiles>
CCc1c(-c2ccccc2)c(-c2ccccc2)nn1-c1ccccc1-c1cccc(OCC(=O)O)c1

>  <IC50_nM>
10000

>  <Assay Description>
Inhibition of PPARgamma (unknown origin) transfected in HEK293 cells incubated for 18 hrs in presence of rosiglitazone by dual luciferase reporter assay

$$$$
CHEMBL3753490
Actelion Java MolfileCreator 2.0

  0  0  0  0  0  0              0 V3000
M  V30 BEGIN CTAB
M  V30 COUNTS 41 44 0 0 0
M  V30 BEGIN ATOM
M  V30 1 O 14.2894 -4.5 0.0 0
M  V30 2 N 14.2894 -3.0 0.0 0 CHG=1
M  V30 3 O 15.5884 -2.2499 0.0 0 CHG=-1
M  V30 4 C 12.9903 -2.25 0.0 0
M  V30 5 C 12.9903 -0.75 0.0 0
M  V30 6 C 11.6913 -3.0 0.0 0
M  V30 7 C 11.6913 0.0 0.0 0
M  V30 8 C 10.3923 -2.25 0.0 0
M  V30 9 C 10.3923 -0.75 0.0 0
M  V30 10 O 9.0932 0.0 0.0 0
M  V30 11 C 7.7942 -0.75 0.0 0
M  V30 12 C 6.4951 0.0 0.0 0
M  V30 13 N 5.1961 -0.75 0.0 0
M  V30 14 C 5.1961 -2.25 0.0 0
M  V30 15 C 3.8971 0.0 0.0 0
M  V30 16 C 3.8971 -3.0 0.0 0
M  V30 17 C 6.4951 -3.0 0.0 0
M  V30 18 C 2.598 -0.75 0.0 0
M  V30 19 C 3.8971 -4.5 0.0 0
M  V30 20 C 6.4951 -4.4999 0.0 0
M  V30 21 O 1.299 0.0 0.0 0
M  V30 22 C 5.1961 -5.25 0.0 0
M  V30 23 C 0.0 -0.75 0.0 0
M  V30 24 C 5.1961 -6.75 0.0 0
M  V30 25 C -1.299 0.0 0.0 0
M  V30 26 C 0.0 -2.2499 0.0 0
M  V30 27 C 6.4951 -7.5 0.0 0
M  V30 28 C -2.598 -0.7499 0.0 0
M  V30 29 C -1.299 -2.9999 0.0 0
M  V30 30 C 6.4951 -9.0 0.0 0
M  V30 31 C 7.7942 -6.75 0.0 0
M  V30 32 C -2.598 -2.2499 0.0 0
M  V30 33 O 5.1961 -9.75 0.0 0
M  V30 34 N 7.7942 -9.75 0.0 0
M  V30 35 O 7.7942 -5.2499 0.0 0
M  V30 36 N 9.0932 -7.5 0.0 0
M  V30 37 N -3.8971 -2.9999 0.0 0 CHG=1
M  V30 38 C 9.0932 -8.9999 0.0 0
M  V30 39 O -5.1961 -2.2499 0.0 0
M  V30 40 O -3.8971 -4.4999 0.0 0 CHG=-1
M  V30 41 O 10.3923 -9.7499 0.0 0
M  V30 END ATOM
M  V30 BEGIN BOND
M  V30 1 2 1 2
M  V30 2 1 2 3
M  V30 3 1 2 4
M  V30 4 2 4 5
M  V30 5 1 4 6
M  V30 6 1 5 7
M  V30 7 2 6 8
M  V30 8 2 7 9
M  V30 9 1 9 10
M  V30 10 1 10 11
M  V30 11 1 11 12
M  V30 12 1 12 13
M  V30 13 1 13 14
M  V30 14 1 13 15
M  V30 15 2 14 16
M  V30 16 1 14 17
M  V30 17 1 15 18
M  V30 18 1 16 19
M  V30 19 2 17 20
M  V30 20 1 18 21
M  V30 21 2 19 22
M  V30 22 1 21 23
M  V30 23 1 22 24
M  V30 24 2 23 25
M  V30 25 1 23 26
M  V30 26 2 24 27
M  V30 27 1 25 28
M  V30 28 2 26 29
M  V30 29 1 27 30
M  V30 30 1 27 31
M  V30 31 2 28 32
M  V30 32 2 30 33
M  V30 33 1 30 34
M  V30 34 2 31 35
M  V30 35 1 31 36
M  V30 36 1 32 37
M  V30 37 1 34 38
M  V30 38 2 37 39
M  V30 39 1 37 40
M  V30 40 2 38 41
M  V30 41 1 8 9
M  V30 42 1 20 22
M  V30 43 1 29 32
M  V30 44 1 36 38
M  V30 END BOND
M  V30 END CTAB
M  END
>  <Molecule ChEMBL ID>
CHEMBL3753490

>  <Smiles>
O=C1NC(=O)C(=Cc2ccc(N(CCOc3ccc([N+](=O)[O-])cc3)CCOc3ccc([N+](=O)[O-])cc3)cc2)C(=O)N1

>  <IC50_nM>
10100

>  <Assay Description>
Binding affinity to GST-tagged human PPAR-gamma receptor by FRET assay

$$$$
CHEMBL1089500
Actelion Java MolfileCreator 2.0

  0  0  0  0  0  0              0 V3000
M  V30 BEGIN CTAB
M  V30 COUNTS 33 35 0 0 0
M  V30 BEGIN ATOM
M  V30 1 Cl 9.7793 10.2749 0.0 0
M  V30 2 C 9.1915 9.4658 0.0 0
M  V30 3 C 8.197 9.5704 0.0 0
M  V30 4 C 9.5982 8.5523 0.0 0
M  V30 5 C 7.6092 8.7614 0.0 0
M  V30 6 C 9.0105 7.7433 0.0 0
M  V30 7 C 8.0159 7.8478 0.0 0
M  V30 8 C 7.4282 7.0388 0.0 0
M  V30 9 O 6.4282 7.0388 0.0 0
M  V30 10 N 7.7372 6.0877 0.0 0
M  V30 11 C 6.1191 6.0877 0.0 0
M  V30 12 C 6.9282 5.4999 0.0 0
M  V30 13 C 5.1681 5.7787 0.0 0
M  V30 14 C 6.9282 4.4999 0.0 0
M  V30 15 O 6.0621 3.9999 0.0 0
M  V30 16 C 6.0621 2.9999 0.0 0
M  V30 17 C 5.1961 2.5 0.0 0
M  V30 18 C 6.9282 2.4999 0.0 0
M  V30 19 C 5.1961 1.4999 0.0 0
M  V30 20 C 6.9282 1.4999 0.0 0
M  V30 21 C 6.0621 0.9999 0.0 0
M  V30 22 C 4.3301 0.9999 0.0 0
M  V30 23 N 3.4641 1.4999 0.0 0
M  V30 24 C 2.598 1.0 0.0 0
M  V30 25 C 3.4641 2.5 0.0 0
M  V30 26 O 1.732 1.5 0.0 0
M  V30 27 O 2.598 0.0 0.0 0
M  V30 28 C 2.598 3.0 0.0 0
M  V30 29 C 1.732 -0.4999 0.0 0
M  V30 30 O 2.598 4.0 0.0 0
M  V30 31 O 1.732 2.5 0.0 0
M  V30 32 C 1.732 -1.4999 0.0 0
M  V30 33 C 0.866 -1.9999 0.0 0
M  V30 END ATOM
M  V30 BEGIN BOND
M  V30 1 1 1 2
M  V30 2 2 2 3
M  V30 3 1 2 4
M  V30 4 1 3 5
M  V30 5 2 4 6
M  V30 6 2 5 7
M  V30 7 1 7 8
M  V30 8 1 8 9
M  V30 9 2 8 10
M  V30 10 1 9 11
M  V30 11 1 10 12
M  V30 12 1 11 13
M  V30 13 1 12 14
M  V30 14 1 14 15
M  V30 15 1 15 16
M  V30 16 2 16 17
M  V30 17 1 16 18
M  V30 18 1 17 19
M  V30 19 2 18 20
M  V30 20 2 19 21
M  V30 21 1 19 22
M  V30 22 1 22 23
M  V30 23 1 23 24
M  V30 24 1 23 25
M  V30 25 2 24 26
M  V30 26 1 24 27
M  V30 27 1 25 28
M  V30 28 1 27 29
M  V30 29 2 28 30
M  V30 30 1 28 31
M  V30 31 1 29 32
M  V30 32 1 32 33
M  V30 33 1 6 7
M  V30 34 2 11 12
M  V30 35 1 20 21
M  V30 END BOND
M  V30 END CTAB
M  END
>  <Molecule ChEMBL ID>
CHEMBL1089500

>  <Smiles>
CCCOC(=O)N(CC(=O)O)Cc1cccc(OCc2nc(-c3ccc(Cl)cc3)oc2C)c1

>  <IC50_nM>
10310

>  <Assay Description>
Binding affinity to human His-tagged PPARgamma LBD (Q203-Y477) expressed in Escherichia coli BL21 (DE3) by fluorescence polarization assay

$$$$
CHEMBL294807
Actelion Java MolfileCreator 2.0

  0  0  0  0  0  0              0 V3000
M  V30 BEGIN CTAB
M  V30 COUNTS 26 28 0 0 0
M  V30 BEGIN ATOM
M  V30 1 O 6.9282 -4.5 0.0 0
M  V30 2 C 6.9282 -3.5 0.0 0
M  V30 3 O 7.7942 -3.0 0.0 0
M  V30 4 C 6.0621 -3.0 0.0 0
M  V30 5 O 6.0621 -1.9999 0.0 0
M  V30 6 C 5.1961 -1.4999 0.0 0
M  V30 7 C 5.1961 -0.5 0.0 0
M  V30 8 C 4.3301 -1.9999 0.0 0
M  V30 9 C 4.3301 0.0 0.0 0
M  V30 10 C 3.4641 -1.5 0.0 0
M  V30 11 C 3.4641 -0.5 0.0 0
M  V30 12 O 2.598 0.0 0.0 0
M  V30 13 C 1.732 -0.5 0.0 0
M  V30 14 C 0.866 0.0 0.0 0
M  V30 15 C 0.0 -0.5 0.0 0
M  V30 16 N -0.9135 -0.0932 0.0 0
M  V30 17 C -0.1045 -1.4945 0.0 0
M  V30 18 C -1.5826 -0.8364 0.0 0
M  V30 19 O -1.0826 -1.7024 0.0 0
M  V30 20 C 0.6386 -2.1636 0.0 0
M  V30 21 C -2.5771 -0.7318 0.0 0
M  V30 22 C -2.9839 0.1816 0.0 0
M  V30 23 C -3.1649 -1.5408 0.0 0
M  V30 24 C -3.9784 0.2861 0.0 0
M  V30 25 C -4.1595 -1.4363 0.0 0
M  V30 26 C -4.5662 -0.5228 0.0 0
M  V30 END ATOM
M  V30 BEGIN BOND
M  V30 1 2 1 2
M  V30 2 1 2 3
M  V30 3 1 2 4
M  V30 4 1 4 5
M  V30 5 1 5 6
M  V30 6 2 6 7
M  V30 7 1 6 8
M  V30 8 1 7 9
M  V30 9 2 8 10
M  V30 10 2 9 11
M  V30 11 1 11 12
M  V30 12 1 12 13
M  V30 13 1 13 14
M  V30 14 1 14 15
M  V30 15 1 15 16
M  V30 16 2 15 17
M  V30 17 2 16 18
M  V30 18 1 17 19
M  V30 19 1 17 20
M  V30 20 1 18 21
M  V30 21 2 21 22
M  V30 22 1 21 23
M  V30 23 1 22 24
M  V30 24 2 23 25
M  V30 25 2 24 26
M  V30 26 1 10 11
M  V30 27 1 18 19
M  V30 28 1 25 26
M  V30 END BOND
M  V30 END CTAB
M  END
>  <Molecule ChEMBL ID>
CHEMBL294807

>  <Smiles>
Cc1oc(-c2ccccc2)nc1CCOc1ccc(OCC(=O)O)cc1

>  <IC50_nM>
10591

>  <Assay Description>
Binding affinity at human peroxidase proliferator activated receptor gamma (hPPARgamma)

$$$$
CHEMBL470574
Actelion Java MolfileCreator 2.0

  0  0  0  0  0  0              0 V3000
M  V30 BEGIN CTAB
M  V30 COUNTS 22 23 0 0 0
M  V30 BEGIN ATOM
M  V30 1 S 3.8971 0.0 0.0 0
M  V30 2 O 4.6471 1.299 0.0 0
M  V30 3 O 3.1471 1.299 0.0 0
M  V30 4 O 5.1961 -0.75 0.0 0
M  V30 5 C 2.598 -0.75 0.0 0
M  V30 6 C 6.4952 0.0 0.0 0
M  V30 7 C 1.299 0.0 0.0 0
M  V30 8 C 7.7942 -0.75 0.0 0
M  V30 9 C 6.4952 1.5 0.0 0
M  V30 10 C 0.0 -0.75 0.0 0
M  V30 11 C 9.0932 0.0 0.0 0
M  V30 12 C 7.7942 2.25 0.0 0
M  V30 13 C -1.299 0.0 0.0 0
M  V30 14 C 0.0 -2.25 0.0 0
M  V30 15 C 9.0932 1.5 0.0 0
M  V30 16 C -2.598 -0.75 0.0 0
M  V30 17 C -1.299 -3.0 0.0 0
M  V30 18 N 10.3923 2.25 0.0 0
M  V30 19 C -2.598 -2.25 0.0 0
M  V30 20 C 11.6913 1.5 0.0 0
M  V30 21 O 11.6913 0.0 0.0 0
M  V30 22 C 12.9904 2.25 0.0 0
M  V30 END ATOM
M  V30 BEGIN BOND
M  V30 1 2 1 2
M  V30 2 2 1 3
M  V30 3 1 1 4
M  V30 4 1 1 5
M  V30 5 1 4 6
M  V30 6 2 5 7
M  V30 7 2 6 8
M  V30 8 1 6 9
M  V30 9 1 7 10
M  V30 10 1 8 11
M  V30 11 2 9 12
M  V30 12 2 10 13
M  V30 13 1 10 14
M  V30 14 2 11 15
M  V30 15 1 13 16
M  V30 16 2 14 17
M  V30 17 1 15 18
M  V30 18 2 16 19
M  V30 19 1 18 20
M  V30 20 2 20 21
M  V30 21 1 20 22
M  V30 22 1 12 15
M  V30 23 1 17 19
M  V30 END BOND
M  V30 END CTAB
M  END
>  <Molecule ChEMBL ID>
CHEMBL470574

>  <Smiles>
CC(=O)Nc1ccc(OS(=O)(=O)/C=C/c2ccccc2)cc1

>  <IC50_nM>
10712

>  <Assay Description>
Displacement of [3H]BRL49653 from PPARgamma ligand binding domain by scintillation proximity assay

$$$$
CHEMBL514696
Actelion Java MolfileCreator 2.0

  0  0  0  0  0  0              0 V3000
M  V30 BEGIN CTAB
M  V30 COUNTS 27 29 0 0 0
M  V30 BEGIN ATOM
M  V30 1 O 9.5262 0.9999 0.0 0
M  V30 2 C 8.6602 1.4999 0.0 0
M  V30 3 O 8.6602 2.4999 0.0 0
M  V30 4 C 7.7942 0.9999 0.0 0 CFG=1
M  V30 5 N 7.7942 0.0 0.0 0
M  V30 6 C 6.9282 1.4999 0.0 0
M  V30 7 C 6.9852 -0.5877 0.0 0
M  V30 8 C 8.6032 -0.5877 0.0 0
M  V30 9 C 6.0621 0.9999 0.0 0
M  V30 10 C 7.2942 -1.5388 0.0 0
M  V30 11 C 8.2942 -1.5388 0.0 0
M  V30 12 C 5.1961 1.4999 0.0 0
M  V30 13 C 6.0621 0.0 0.0 0
M  V30 14 C 4.3301 0.9999 0.0 0
M  V30 15 C 5.1961 -0.5 0.0 0
M  V30 16 C 4.3301 0.0 0.0 0
M  V30 17 C 3.4641 -0.5 0.0 0
M  V30 18 C 2.598 0.0 0.0 0
M  V30 19 C 1.732 -0.5 0.0 0
M  V30 20 N 0.866 0.0 0.0 0
M  V30 21 C 0.866 1.0 0.0 0
M  V30 22 C 0.0 -0.5 0.0 0
M  V30 23 C 1.732 1.4999 0.0 0
M  V30 24 C 0.0 1.4999 0.0 0
M  V30 25 C 1.732 2.5 0.0 0
M  V30 26 C 0.0 2.5 0.0 0
M  V30 27 C 0.866 3.0 0.0 0
M  V30 END ATOM
M  V30 BEGIN BOND
M  V30 1 2 1 2
M  V30 2 1 2 3
M  V30 3 1 2 4
M  V30 4 1 4 5 CFG=1
M  V30 5 1 4 6
M  V30 6 1 5 7
M  V30 7 1 5 8
M  V30 8 1 6 9
M  V30 9 2 7 10
M  V30 10 2 8 11
M  V30 11 2 9 12
M  V30 12 1 9 13
M  V30 13 1 12 14
M  V30 14 2 13 15
M  V30 15 2 14 16
M  V30 16 1 16 17
M  V30 17 1 17 18
M  V30 18 1 18 19
M  V30 19 1 19 20
M  V30 20 1 20 21
M  V30 21 1 20 22
M  V30 22 2 21 23
M  V30 23 1 21 24
M  V30 24 1 23 25
M  V30 25 2 24 26
M  V30 26 2 25 27
M  V30 27 1 10 11
M  V30 28 1 15 16
M  V30 29 1 26 27
M  V30 END BOND
M  V30 BEGIN COLLECTION
M  V30 MDLV30/STEABS ATOMS=(1 4)
M  V30 END COLLECTION
M  V30 END CTAB
M  END
>  <Molecule ChEMBL ID>
CHEMBL514696

>  <Smiles>
CN(CCCc1ccc(C[C@@H](C(=O)O)n2cccc2)cc1)c1ccccc1

>  <IC50_nM>
11000

>  <Assay Description>
Displacement of [3H]darglitazone from human PPARgamma by scintillation proximity assay

$$$$
CHEMBL234660
Actelion Java MolfileCreator 2.0

  0  0  0  0  0  0              0 V3000
M  V30 BEGIN CTAB
M  V30 COUNTS 32 34 0 0 0
M  V30 BEGIN ATOM
M  V30 1 S 6.0621 -2.0 0.0 0
M  V30 2 C 5.1961 -1.4999 0.0 0
M  V30 3 C 6.0621 -3.0 0.0 0
M  V30 4 C 5.1961 -0.5 0.0 0
M  V30 5 C 4.3301 -1.9999 0.0 0
M  V30 6 C 6.9282 -3.5 0.0 0
M  V30 7 C 4.3301 0.0 0.0 0
M  V30 8 C 3.4641 -1.5 0.0 0
M  V30 9 C 6.9282 -4.5 0.0 0
M  V30 10 C 7.7942 -3.0 0.0 0
M  V30 11 C 3.4641 -0.5 0.0 0
M  V30 12 C 4.3301 1.0 0.0 0
M  V30 13 C 7.7942 -5.0 0.0 0
M  V30 14 C 8.6602 -3.5 0.0 0
M  V30 15 O 2.598 0.0 0.0 0
M  V30 16 C 8.6602 -4.5 0.0 0
M  V30 17 C 1.732 -0.5 0.0 0
M  V30 18 O 9.5262 -5.0 0.0 0
M  V30 19 C 0.866 0.0 0.0 0
M  V30 20 C 9.5262 -6.0 0.0 0
M  V30 21 O 0.866 1.0 0.0 0
M  V30 22 O 0.0 -0.5 0.0 0
M  V30 23 C 10.3923 -6.5 0.0 0
M  V30 24 C 10.3923 -7.5 0.0 0
M  V30 25 C 11.2583 -6.0 0.0 0
M  V30 26 C 11.2583 -8.0 0.0 0
M  V30 27 C 12.1243 -6.5 0.0 0
M  V30 28 C 12.1243 -7.5 0.0 0
M  V30 29 C 12.9903 -8.0 0.0 0
M  V30 30 F 13.4903 -7.1339 0.0 0
M  V30 31 F 13.8564 -8.5 0.0 0
M  V30 32 F 12.4903 -8.866 0.0 0
M  V30 END ATOM
M  V30 BEGIN BOND
M  V30 1 1 1 2
M  V30 2 1 1 3
M  V30 3 2 2 4
M  V30 4 1 2 5
M  V30 5 1 3 6
M  V30 6 1 4 7
M  V30 7 2 5 8
M  V30 8 2 6 9
M  V30 9 1 6 10
M  V30 10 2 7 11
M  V30 11 1 7 12
M  V30 12 1 9 13
M  V30 13 2 10 14
M  V30 14 1 11 15
M  V30 15 2 13 16
M  V30 16 1 15 17
M  V30 17 1 16 18
M  V30 18 1 17 19
M  V30 19 1 18 20
M  V30 20 2 19 21
M  V30 21 1 19 22
M  V30 22 1 20 23
M  V30 23 2 23 24
M  V30 24 1 23 25
M  V30 25 1 24 26
M  V30 26 2 25 27
M  V30 27 2 26 28
M  V30 28 1 28 29
M  V30 29 1 29 30
M  V30 30 1 29 31
M  V30 31 1 29 32
M  V30 32 1 8 11
M  V30 33 1 14 16
M  V30 34 1 27 28
M  V30 END BOND
M  V30 END CTAB
M  END
>  <Molecule ChEMBL ID>
CHEMBL234660

>  <Smiles>
Cc1cc(SCc2ccc(OCc3ccc(C(F)(F)F)cc3)cc2)ccc1OCC(=O)O

>  <IC50_nM>
11000

>  <Assay Description>
Displacement of [3H]5-(4-(3-(5-methyl-2-phenyloxazol-4-yl)propanoyl)benzyl)thiazolidine-2,4-dione from human PPARgamma after 2 hrs by SPA assay

$$$$
CHEMBL4532632
Actelion Java MolfileCreator 2.0

  0  0  0  0  0  0              0 V3000
M  V30 BEGIN CTAB
M  V30 COUNTS 38 41 0 0 0
M  V30 BEGIN ATOM
M  V30 1 F 5.1961 5.4999 0.0 0
M  V30 2 C 5.1961 4.4999 0.0 0
M  V30 3 C 4.3301 3.9999 0.0 0
M  V30 4 C 6.0621 3.9999 0.0 0
M  V30 5 C 4.3301 2.9999 0.0 0
M  V30 6 C 6.0621 2.9999 0.0 0
M  V30 7 C 5.1961 2.4999 0.0 0
M  V30 8 C 5.1961 1.4999 0.0 0
M  V30 9 O 4.3301 0.9999 0.0 0
M  V30 10 C 4.3301 0.0 0.0 0
M  V30 11 C 3.4641 -0.5 0.0 0
M  V30 12 C 5.1961 -0.5 0.0 0
M  V30 13 C 3.4641 -1.5 0.0 0
M  V30 14 C 2.598 0.0 0.0 0
M  V30 15 C 5.1961 -1.5 0.0 0
M  V30 16 C 4.3301 -2.0 0.0 0
M  V30 17 C 1.732 -0.5 0.0 0
M  V30 18 O 4.3301 -3.0 0.0 0
M  V30 19 C 0.866 0.0 0.0 0
M  V30 20 C 3.4641 -3.5 0.0 0
M  V30 21 O 0.866 1.0 0.0 0
M  V30 22 O 0.0 -0.5 0.0 0
M  V30 23 C 3.4641 -4.5 0.0 0
M  V30 24 C 2.598 -4.9999 0.0 0
M  V30 25 C 4.3301 -5.0 0.0 0
M  V30 26 C 2.598 -5.9999 0.0 0
M  V30 27 C 4.3301 -6.0 0.0 0
M  V30 28 C 1.732 -6.4999 0.0 0
M  V30 29 C 3.4641 -6.5 0.0 0
M  V30 30 O 0.866 -5.9999 0.0 0
M  V30 31 C 1.732 -7.4999 0.0 0
M  V30 32 N 3.4641 -7.5 0.0 0
M  V30 33 C 0.0 -6.4999 0.0 0
M  V30 34 C 2.598 -7.9999 0.0 0
M  V30 35 C 2.598 -9.0 0.0 0
M  V30 36 F 3.598 -9.0 0.0 0
M  V30 37 F 2.598 -10.0 0.0 0
M  V30 38 F 1.598 -9.0 0.0 0
M  V30 END ATOM
M  V30 BEGIN BOND
M  V30 1 1 1 2
M  V30 2 2 2 3
M  V30 3 1 2 4
M  V30 4 1 3 5
M  V30 5 2 4 6
M  V30 6 2 5 7
M  V30 7 1 7 8
M  V30 8 1 8 9
M  V30 9 1 9 10
M  V30 10 2 10 11
M  V30 11 1 10 12
M  V30 12 1 11 13
M  V30 13 1 11 14
M  V30 14 2 12 15
M  V30 15 2 13 16
M  V30 16 2 14 17
M  V30 17 1 16 18
M  V30 18 1 17 19
M  V30 19 1 18 20
M  V30 20 2 19 21
M  V30 21 1 19 22
M  V30 22 1 20 23
M  V30 23 2 23 24
M  V30 24 1 23 25
M  V30 25 1 24 26
M  V30 26 2 25 27
M  V30 27 2 26 28
M  V30 28 1 26 29
M  V30 29 1 28 30
M  V30 30 1 28 31
M  V30 31 2 29 32
M  V30 32 1 30 33
M  V30 33 2 31 34
M  V30 34 1 34 35
M  V30 35 1 35 36
M  V30 36 1 35 37
M  V30 37 1 35 38
M  V30 38 1 6 7
M  V30 39 1 15 16
M  V30 40 1 27 29
M  V30 41 1 32 34
M  V30 END BOND
M  V30 END CTAB
M  END
>  <Molecule ChEMBL ID>
CHEMBL4532632

>  <Smiles>
COc1cc(C(F)(F)F)nc2ccc(COc3ccc(OCc4ccc(F)cc4)c(/C=C/C(=O)O)c3)cc12

>  <IC50_nM>
11000

>  <Assay Description>
Antagonist actvity in pFA-GAL4-DBD fused PPARgamma LBD (unknown origin) transfected in HEK293T cells assessed as inhibition of rosiglitazone-induced PPARgamma transactivation incubated for 24 hrs by luciferase reporter gene assay

$$$$
CHEMBL4280830
Actelion Java MolfileCreator 2.0

  0  0  0  0  0  0              0 V3000
M  V30 BEGIN CTAB
M  V30 COUNTS 24 26 0 0 0
M  V30 BEGIN ATOM
M  V30 1 S 5.2531 -3.5877 0.0 0
M  V30 2 C 5.5621 -4.5388 0.0 0
M  V30 3 C 6.0621 -3.0 0.0 0 CFG=2
M  V30 4 O 4.9743 -5.3478 0.0 0
M  V30 5 N 6.5621 -4.5388 0.0 0
M  V30 6 C 6.8711 -3.5877 0.0 0
M  V30 7 C 6.0621 -1.9999 0.0 0
M  V30 8 O 7.8222 -3.2787 0.0 0
M  V30 9 C 5.1961 -1.4999 0.0 0
M  V30 10 C 5.1961 -0.5 0.0 0
M  V30 11 C 4.3301 -1.9999 0.0 0
M  V30 12 C 4.3301 0.0 0.0 0
M  V30 13 C 3.4641 -1.5 0.0 0
M  V30 14 C 3.4641 -0.5 0.0 0
M  V30 15 O 2.598 0.0 0.0 0
M  V30 16 C 1.732 -0.5 0.0 0
M  V30 17 C 0.866 0.0 0.0 0
M  V30 18 O 0.866 1.0 0.0 0
M  V30 19 C 0.0 -0.5 0.0 0
M  V30 20 C -0.866 0.0 0.0 0
M  V30 21 C 0.0 -1.4999 0.0 0
M  V30 22 C -1.732 -0.4999 0.0 0
M  V30 23 C -0.866 -1.9999 0.0 0
M  V30 24 C -1.732 -1.4999 0.0 0
M  V30 END ATOM
M  V30 BEGIN BOND
M  V30 1 1 1 2
M  V30 2 1 1 3
M  V30 3 2 2 4
M  V30 4 1 2 5
M  V30 5 1 3 6
M  V30 6 1 3 7 CFG=1
M  V30 7 2 6 8
M  V30 8 1 7 9
M  V30 9 2 9 10
M  V30 10 1 9 11
M  V30 11 1 10 12
M  V30 12 2 11 13
M  V30 13 2 12 14
M  V30 14 1 14 15
M  V30 15 1 15 16
M  V30 16 1 16 17
M  V30 17 2 17 18
M  V30 18 1 17 19
M  V30 19 2 19 20
M  V30 20 1 19 21
M  V30 21 1 20 22
M  V30 22 2 21 23
M  V30 23 2 22 24
M  V30 24 1 5 6
M  V30 25 1 13 14
M  V30 26 1 23 24
M  V30 END BOND
M  V30 BEGIN COLLECTION
M  V30 MDLV30/STERAC1 ATOMS=(1 3)
M  V30 END COLLECTION
M  V30 END CTAB
M  END
>  <Molecule ChEMBL ID>
CHEMBL4280830

>  <Smiles>
O=C1NC(=O)C(Cc2ccc(OCC(=O)c3ccccc3)cc2)S1

>  <IC50_nM>
11700

>  <Assay Description>
Competitive displacement of fluorescently labelled PPAR tracer ligand from GST-tagged human PPARgamma ligand binding domain after 1 hr in dark by TR-FRET competitive binding assay

$$$$
CHEMBL477941
Actelion Java MolfileCreator 2.0

  0  0  0  0  0  0              0 V3000
M  V30 BEGIN CTAB
M  V30 COUNTS 27 29 0 0 0
M  V30 BEGIN ATOM
M  V30 1 O 5.1961 -0.75 0.0 0
M  V30 2 C 3.8971 0.0 0.0 0
M  V30 3 O 3.8971 1.5 0.0 0
M  V30 4 C 2.598 -0.75 0.0 0 CFG=1
M  V30 5 N 2.598 -2.25 0.0 0
M  V30 6 C 1.299 0.0 0.0 0
M  V30 7 C 1.3845 -3.1316 0.0 0
M  V30 8 C 3.8116 -3.1316 0.0 0
M  V30 9 C 0.0 -0.75 0.0 0
M  V30 10 C 1.848 -4.5582 0.0 0
M  V30 11 C 3.348 -4.5582 0.0 0
M  V30 12 C -1.299 0.0 0.0 0
M  V30 13 C 0.0 -2.2499 0.0 0
M  V30 14 C -2.598 -0.7499 0.0 0
M  V30 15 C -1.299 -2.9999 0.0 0
M  V30 16 C -2.598 -2.2499 0.0 0
M  V30 17 C -3.8971 -2.9999 0.0 0
M  V30 18 C -5.1961 -3.7499 0.0 0
M  V30 19 C -6.4951 -4.4999 0.0 0
M  V30 20 N -6.4951 -5.9999 0.0 0
M  V30 21 C -7.7942 -6.7499 0.0 0
M  V30 22 C -5.1961 -6.75 0.0 0
M  V30 23 C -9.0932 -5.9999 0.0 0
M  V30 24 C -7.7942 -8.2499 0.0 0
M  V30 25 C -10.3923 -6.7499 0.0 0
M  V30 26 C -9.0932 -8.9999 0.0 0
M  V30 27 C -10.3923 -8.2499 0.0 0
M  V30 END ATOM
M  V30 BEGIN BOND
M  V30 1 2 1 2
M  V30 2 1 2 3
M  V30 3 1 2 4
M  V30 4 1 4 5 CFG=1
M  V30 5 1 4 6
M  V30 6 1 5 7
M  V30 7 1 5 8
M  V30 8 1 6 9
M  V30 9 2 7 10
M  V30 10 2 8 11
M  V30 11 2 9 12
M  V30 12 1 9 13
M  V30 13 1 12 14
M  V30 14 2 13 15
M  V30 15 2 14 16
M  V30 16 1 16 17
M  V30 17 3 17 18
M  V30 18 1 18 19
M  V30 19 1 19 20
M  V30 20 1 20 21
M  V30 21 1 20 22
M  V30 22 2 21 23
M  V30 23 1 21 24
M  V30 24 1 23 25
M  V30 25 2 24 26
M  V30 26 2 25 27
M  V30 27 1 10 11
M  V30 28 1 15 16
M  V30 29 1 26 27
M  V30 END BOND
M  V30 BEGIN COLLECTION
M  V30 MDLV30/STEABS ATOMS=(1 4)
M  V30 END COLLECTION
M  V30 END CTAB
M  END
>  <Molecule ChEMBL ID>
CHEMBL477941

>  <Smiles>
CN(CC#Cc1ccc(C[C@@H](C(=O)O)n2cccc2)cc1)c1ccccc1

>  <IC50_nM>
12000

>  <Assay Description>
Displacement of [3H]darglitazone from human PPARgamma by scintillation proximity assay

$$$$
CHEMBL479001
Actelion Java MolfileCreator 2.0

  0  0  0  0  0  0              0 V3000
M  V30 BEGIN CTAB
M  V30 COUNTS 27 29 0 0 0
M  V30 BEGIN ATOM
M  V30 1 O 9.5262 0.9999 0.0 0
M  V30 2 C 8.6602 1.4999 0.0 0
M  V30 3 O 8.6602 2.4999 0.0 0
M  V30 4 C 7.7942 0.9999 0.0 0 CFG=1
M  V30 5 N 7.7942 0.0 0.0 0
M  V30 6 C 6.9282 1.4999 0.0 0
M  V30 7 C 6.9852 -0.5877 0.0 0
M  V30 8 C 8.6032 -0.5877 0.0 0
M  V30 9 C 6.0621 0.9999 0.0 0
M  V30 10 C 7.2942 -1.5388 0.0 0
M  V30 11 C 8.2942 -1.5388 0.0 0
M  V30 12 C 5.1961 1.4999 0.0 0
M  V30 13 C 6.0621 0.0 0.0 0
M  V30 14 C 4.3301 0.9999 0.0 0
M  V30 15 C 5.1961 -0.5 0.0 0
M  V30 16 C 4.3301 0.0 0.0 0
M  V30 17 C 3.4641 -0.5 0.0 0
M  V30 18 C 2.598 0.0 0.0 0
M  V30 19 C 1.732 -0.5 0.0 0
M  V30 20 N 0.866 0.0 0.0 0
M  V30 21 C 0.866 1.0 0.0 0
M  V30 22 C 0.0 -0.5 0.0 0
M  V30 23 N 1.732 1.4999 0.0 0
M  V30 24 C 0.0 1.4999 0.0 0
M  V30 25 C 1.732 2.5 0.0 0
M  V30 26 C 0.0 2.5 0.0 0
M  V30 27 C 0.866 3.0 0.0 0
M  V30 END ATOM
M  V30 BEGIN BOND
M  V30 1 2 1 2
M  V30 2 1 2 3
M  V30 3 1 2 4
M  V30 4 1 4 5 CFG=1
M  V30 5 1 4 6
M  V30 6 1 5 7
M  V30 7 1 5 8
M  V30 8 1 6 9
M  V30 9 2 7 10
M  V30 10 2 8 11
M  V30 11 2 9 12
M  V30 12 1 9 13
M  V30 13 1 12 14
M  V30 14 2 13 15
M  V30 15 2 14 16
M  V30 16 1 16 17
M  V30 17 2 17 18
M  V30 18 1 18 19
M  V30 19 1 19 20
M  V30 20 1 20 21
M  V30 21 1 20 22
M  V30 22 2 21 23
M  V30 23 1 21 24
M  V30 24 1 23 25
M  V30 25 2 24 26
M  V30 26 2 25 27
M  V30 27 1 10 11
M  V30 28 1 15 16
M  V30 29 1 26 27
M  V30 END BOND
M  V30 BEGIN COLLECTION
M  V30 MDLV30/STEABS ATOMS=(1 4)
M  V30 END COLLECTION
M  V30 END CTAB
M  END
>  <Molecule ChEMBL ID>
CHEMBL479001

>  <Smiles>
CN(C/C=C/c1ccc(C[C@@H](C(=O)O)n2cccc2)cc1)c1ccccn1

>  <IC50_nM>
12000

>  <Assay Description>
Displacement of [3H]darglitazone from human PPARgamma by scintillation proximity assay

$$$$
CHEMBL4592882
Actelion Java MolfileCreator 2.0

  0  0  0  0  0  0              0 V3000
M  V30 BEGIN CTAB
M  V30 COUNTS 37 41 0 0 0
M  V30 BEGIN ATOM
M  V30 1 O 11.8592 -3.5669 0.0 0
M  V30 2 C 10.8811 -3.7748 0.0 0
M  V30 3 O 10.212 -3.0316 0.0 0
M  V30 4 C 10.5721 -4.7258 0.0 0
M  V30 5 C 9.5939 -4.9337 0.0 0
M  V30 6 C 11.2412 -5.469 0.0 0
M  V30 7 C 8.9248 -4.1906 0.0 0
M  V30 8 C 9.2849 -5.8848 0.0 0
M  V30 9 C 10.9322 -6.42 0.0 0
M  V30 10 C 9.2338 -3.2395 0.0 0
M  V30 11 C 7.9466 -4.3985 0.0 0
M  V30 12 C 9.954 -6.6279 0.0 0
M  V30 13 C 8.5647 -2.4964 0.0 0
M  V30 14 C 7.2775 -3.6554 0.0 0
M  V30 15 C 7.5865 -2.7043 0.0 0
M  V30 16 C 6.9174 -1.9612 0.0 0
M  V30 17 N 5.9392 -2.1691 0.0 0
M  V30 18 C 5.1961 -1.4999 0.0 0
M  V30 19 C 5.5325 -3.0826 0.0 0
M  V30 20 C 4.3301 -1.9999 0.0 0
M  V30 21 C 5.1961 -0.4999 0.0 0
M  V30 22 C 4.538 -2.9781 0.0 0
M  V30 23 C 6.0325 -3.9487 0.0 0
M  V30 24 C 3.4641 -1.5 0.0 0
M  V30 25 C 4.3301 0.0 0.0 0
M  V30 26 C 3.8689 -3.7212 0.0 0
M  V30 27 C 3.4641 -0.5 0.0 0
M  V30 28 C 2.598 0.0 0.0 0
M  V30 29 O 2.598 1.0 0.0 0
M  V30 30 N 1.732 -0.5 0.0 0
M  V30 31 C 0.866 0.0 0.0 0
M  V30 32 C 0.0 -0.5 0.0 0
M  V30 33 C -0.866 0.0 0.0 0
M  V30 34 C 0.0 -1.4999 0.0 0
M  V30 35 C -1.732 -0.4999 0.0 0
M  V30 36 C -0.866 -1.9999 0.0 0
M  V30 37 N -1.732 -1.4999 0.0 0
M  V30 END ATOM
M  V30 BEGIN BOND
M  V30 1 2 1 2
M  V30 2 1 2 3
M  V30 3 1 2 4
M  V30 4 2 4 5
M  V30 5 1 4 6
M  V30 6 1 5 7
M  V30 7 1 5 8
M  V30 8 2 6 9
M  V30 9 2 7 10
M  V30 10 1 7 11
M  V30 11 2 8 12
M  V30 12 1 10 13
M  V30 13 2 11 14
M  V30 14 2 13 15
M  V30 15 1 15 16
M  V30 16 1 16 17
M  V30 17 1 17 18
M  V30 18 1 17 19
M  V30 19 2 18 20
M  V30 20 1 18 21
M  V30 21 2 19 22
M  V30 22 1 19 23
M  V30 23 1 20 24
M  V30 24 2 21 25
M  V30 25 1 22 26
M  V30 26 2 24 27
M  V30 27 1 27 28
M  V30 28 2 28 29
M  V30 29 1 28 30
M  V30 30 1 30 31
M  V30 31 1 31 32
M  V30 32 1 32 33
M  V30 33 1 32 34
M  V30 34 1 33 35
M  V30 35 1 34 36
M  V30 36 1 35 37
M  V30 37 1 9 12
M  V30 38 1 14 15
M  V30 39 1 20 22
M  V30 40 1 25 27
M  V30 41 1 36 37
M  V30 END BOND
M  V30 END CTAB
M  END
>  <Molecule ChEMBL ID>
CHEMBL4592882

>  <Smiles>
Cc1c(C)n(Cc2ccc(-c3ccccc3C(=O)O)cc2)c2ccc(C(=O)NCC3CCNCC3)cc12

>  <IC50_nM>
12120

>  <Assay Description>
Displacement of fluormone PPAR green tracer ligand from recombinant GST-tagged PPARgamma ligand binding domain (unknown origin) incubated for 4 hrs by competitive fluorescence polarization binding assay

$$$$
CHEMBL1017
Actelion Java MolfileCreator 2.0

  0  0  0  0  0  0              0 V3000
M  V30 BEGIN CTAB
M  V30 COUNTS 39 44 0 0 0
M  V30 BEGIN ATOM
M  V30 1 O 2.1138 -6.3267 0.0 0
M  V30 2 C 1.9059 -5.3485 0.0 0
M  V30 3 O 2.649 -4.6794 0.0 0
M  V30 4 C 0.9548 -5.0395 0.0 0
M  V30 5 C 0.7469 -4.0614 0.0 0
M  V30 6 C 0.2117 -5.7086 0.0 0
M  V30 7 C 1.49 -3.3922 0.0 0
M  V30 8 C -0.2041 -3.7523 0.0 0
M  V30 9 C -0.7393 -5.3996 0.0 0
M  V30 10 C 2.4411 -3.7012 0.0 0
M  V30 11 C 1.2821 -2.4141 0.0 0
M  V30 12 C -0.9472 -4.4215 0.0 0
M  V30 13 C 3.1843 -3.0321 0.0 0
M  V30 14 C 2.0253 -1.7449 0.0 0
M  V30 15 C 2.9763 -2.054 0.0 0
M  V30 16 C 3.7195 -1.3848 0.0 0
M  V30 17 N 3.5116 -0.4067 0.0 0
M  V30 18 C 4.1807 0.3364 0.0 0
M  V30 19 C 2.598 0.0 0.0 0
M  V30 20 C 3.6807 1.2024 0.0 0
M  V30 21 C 5.1807 0.3364 0.0 0
M  V30 22 N 2.7026 0.9945 0.0 0
M  V30 23 C 1.732 -0.5 0.0 0
M  V30 24 C 4.1807 2.0684 0.0 0
M  V30 25 C 5.6807 1.2024 0.0 0
M  V30 26 C 0.866 0.0 0.0 0
M  V30 27 C 5.1807 2.0684 0.0 0
M  V30 28 C 3.6807 2.9344 0.0 0
M  V30 29 C 6.6807 1.2024 0.0 0
M  V30 30 C 0.0 -0.5 0.0 0
M  V30 31 N 7.2685 0.3934 0.0 0
M  V30 32 N 7.2685 2.0114 0.0 0
M  V30 33 C 8.2195 0.7024 0.0 0
M  V30 34 C 8.2195 1.7024 0.0 0
M  V30 35 C 6.9595 2.9625 0.0 0
M  V30 36 C 9.0856 0.2024 0.0 0
M  V30 37 C 9.0856 2.2024 0.0 0
M  V30 38 C 9.9516 0.7024 0.0 0
M  V30 39 C 9.9516 1.7024 0.0 0
M  V30 END ATOM
M  V30 BEGIN BOND
M  V30 1 2 1 2
M  V30 2 1 2 3
M  V30 3 1 2 4
M  V30 4 2 4 5
M  V30 5 1 4 6
M  V30 6 1 5 7
M  V30 7 1 5 8
M  V30 8 2 6 9
M  V30 9 2 7 10
M  V30 10 1 7 11
M  V30 11 2 8 12
M  V30 12 1 10 13
M  V30 13 2 11 14
M  V30 14 2 13 15
M  V30 15 1 15 16
M  V30 16 1 16 17
M  V30 17 1 17 18
M  V30 18 1 17 19
M  V30 19 2 18 20
M  V30 20 1 18 21
M  V30 21 2 19 22
M  V30 22 1 19 23
M  V30 23 1 20 24
M  V30 24 2 21 25
M  V30 25 1 23 26
M  V30 26 2 24 27
M  V30 27 1 24 28
M  V30 28 1 25 29
M  V30 29 1 26 30
M  V30 30 2 29 31
M  V30 31 1 29 32
M  V30 32 1 31 33
M  V30 33 1 32 34
M  V30 34 1 32 35
M  V30 35 1 33 36
M  V30 36 1 34 37
M  V30 37 2 36 38
M  V30 38 2 37 39
M  V30 39 1 9 12
M  V30 40 1 14 15
M  V30 41 1 20 22
M  V30 42 1 25 27
M  V30 43 2 33 34
M  V30 44 1 38 39
M  V30 END BOND
M  V30 END CTAB
M  END
>  <Molecule ChEMBL ID>
CHEMBL1017

>  <Smiles>
CCCc1nc2c(C)cc(-c3nc4ccccc4n3C)cc2n1Cc1ccc(-c2ccccc2C(=O)O)cc1

>  <IC50_nM>
12200

>  <Assay Description>
Displacement of radiolabeled ((5-{4-[Methyl-pyridin-2yl-amino)-ethoxy]-benzyl}-thiazolidine-2,4-dione) from human PPARgamma ligand binding domain expressed in Escherichia coli

$$$$
CHEMBL489327
Actelion Java MolfileCreator 2.0

  0  0  0  0  0  0              0 V3000
M  V30 BEGIN CTAB
M  V30 COUNTS 31 33 0 0 0
M  V30 BEGIN ATOM
M  V30 1 S 5.1961 -0.75 0.0 0
M  V30 2 O 4.4461 -2.049 0.0 0
M  V30 3 O 5.9461 -2.049 0.0 0
M  V30 4 N 3.8971 0.0 0.0 0
M  V30 5 C 6.4952 0.0 0.0 0
M  V30 6 C 2.598 -0.75 0.0 0
M  V30 7 C 7.7942 -0.75 0.0 0
M  V30 8 C 6.4952 1.5 0.0 0
M  V30 9 O 2.598 -2.25 0.0 0
M  V30 10 N 1.299 0.0 0.0 0
M  V30 11 C 9.0932 0.0 0.0 0
M  V30 12 C 7.7942 2.25 0.0 0
M  V30 13 C 0.0 -0.75 0.0 0
M  V30 14 C 9.0932 1.5 0.0 0
M  V30 15 C -1.299 0.0 0.0 0
M  V30 16 C 0.0 -2.25 0.0 0
M  V30 17 C 10.3923 2.25 0.0 0
M  V30 18 C -2.598 -0.75 0.0 0
M  V30 19 C -1.299 -3.0 0.0 0
M  V30 20 C 11.6913 1.5 0.0 0
M  V30 21 C -2.598 -2.25 0.0 0
M  V30 22 N 12.9904 2.25 0.0 0
M  V30 23 S 14.2894 1.5 0.0 0
M  V30 24 O 13.5394 0.201 0.0 0
M  V30 25 O 15.0394 0.201 0.0 0
M  V30 26 C 15.5884 2.25 0.0 0
M  V30 27 C 16.8875 1.5 0.0 0
M  V30 28 C 15.5884 3.75 0.0 0
M  V30 29 C 18.1865 2.25 0.0 0
M  V30 30 C 16.8875 4.5 0.0 0
M  V30 31 C 18.1865 3.75 0.0 0
M  V30 END ATOM
M  V30 BEGIN BOND
M  V30 1 2 1 2
M  V30 2 2 1 3
M  V30 3 1 1 4
M  V30 4 1 1 5
M  V30 5 1 4 6
M  V30 6 2 5 7
M  V30 7 1 5 8
M  V30 8 2 6 9
M  V30 9 1 6 10
M  V30 10 1 7 11
M  V30 11 2 8 12
M  V30 12 1 10 13
M  V30 13 2 11 14
M  V30 14 1 13 15
M  V30 15 1 13 16
M  V30 16 1 14 17
M  V30 17 1 15 18
M  V30 18 1 16 19
M  V30 19 1 17 20
M  V30 20 1 18 21
M  V30 21 1 20 22
M  V30 22 1 22 23
M  V30 23 2 23 24
M  V30 24 2 23 25
M  V30 25 1 23 26
M  V30 26 2 26 27
M  V30 27 1 26 28
M  V30 28 1 27 29
M  V30 29 2 28 30
M  V30 30 2 29 31
M  V30 31 1 12 14
M  V30 32 1 19 21
M  V30 33 1 30 31
M  V30 END BOND
M  V30 END CTAB
M  END
>  <Molecule ChEMBL ID>
CHEMBL489327

>  <Smiles>
O=C(NC1CCCCC1)NS(=O)(=O)c1ccc(CCNS(=O)(=O)c2ccccc2)cc1

>  <IC50_nM>
12500

>  <Assay Description>
Displacement of fluormone-PPARgamma green from GST-tagged PPARgamma-LBD (unknown origin) by fluorescence polarization assay

$$$$
CHEMBL1760409
Actelion Java MolfileCreator 2.0

  0  0  0  0  0  0              0 V3000
M  V30 BEGIN CTAB
M  V30 COUNTS 36 38 0 0 0
M  V30 BEGIN ATOM
M  V30 1 Cl -1.299 -7.5 0.0 0
M  V30 2 C 0.0 -6.75 0.0 0
M  V30 3 C 0.0 -5.25 0.0 0
M  V30 4 C 1.299 -7.5 0.0 0
M  V30 5 C 1.299 -4.5 0.0 0
M  V30 6 C 2.598 -6.75 0.0 0
M  V30 7 C 2.598 -5.25 0.0 0
M  V30 8 C 3.8971 -4.5 0.0 0
M  V30 9 C 3.8971 -3.0 0.0 0
M  V30 10 C 5.1961 -5.25 0.0 0
M  V30 11 C 5.1961 -2.25 0.0 0
M  V30 12 C 2.598 -2.25 0.0 0
M  V30 13 C 6.4951 -4.5 0.0 0
M  V30 14 N 5.1961 -0.75 0.0 0
M  V30 15 C 6.4951 -3.0 0.0 0
M  V30 16 S 6.4951 0.0 0.0 0
M  V30 17 C 3.8971 0.0 0.0 0
M  V30 18 O 7.2451 1.299 0.0 0
M  V30 19 O 5.7451 1.299 0.0 0
M  V30 20 C 7.7942 -0.75 0.0 0
M  V30 21 C 2.598 -0.75 0.0 0
M  V30 22 C 9.0932 0.0 0.0 0
M  V30 23 C 7.7942 -2.25 0.0 0
M  V30 24 O 1.299 0.0 0.0 0
M  V30 25 C 10.3923 -0.75 0.0 0
M  V30 26 C 9.0932 1.5 0.0 0
M  V30 27 C 9.0932 -3.0 0.0 0
M  V30 28 C 0.0 -0.75 0.0 0
M  V30 29 C 10.3923 -2.25 0.0 0
M  V30 30 C 11.6913 0.0 0.0 0
M  V30 31 O 11.6913 -3.0 0.0 0
M  V30 32 C 11.6913 -4.5 0.0 0 CFG=2
M  V30 33 C 12.9903 -5.25 0.0 0
M  V30 34 C 10.3923 -5.25 0.0 0
M  V30 35 O 14.2894 -4.5 0.0 0
M  V30 36 O 12.9903 -6.75 0.0 0
M  V30 END ATOM
M  V30 BEGIN BOND
M  V30 1 1 1 2
M  V30 2 2 2 3
M  V30 3 1 2 4
M  V30 4 1 3 5
M  V30 5 2 4 6
M  V30 6 2 5 7
M  V30 7 1 7 8
M  V30 8 2 8 9
M  V30 9 1 8 10
M  V30 10 1 9 11
M  V30 11 1 9 12
M  V30 12 2 10 13
M  V30 13 1 11 14
M  V30 14 2 11 15
M  V30 15 1 14 16
M  V30 16 1 14 17
M  V30 17 2 16 18
M  V30 18 2 16 19
M  V30 19 1 16 20
M  V30 20 1 17 21
M  V30 21 2 20 22
M  V30 22 1 20 23
M  V30 23 1 21 24
M  V30 24 1 22 25
M  V30 25 1 22 26
M  V30 26 2 23 27
M  V30 27 1 24 28
M  V30 28 2 25 29
M  V30 29 1 25 30
M  V30 30 1 29 31
M  V30 31 1 31 32
M  V30 32 1 32 33
M  V30 33 1 32 34 CFG=3
M  V30 34 2 33 35
M  V30 35 1 33 36
M  V30 36 1 6 7
M  V30 37 1 13 15
M  V30 38 1 27 29
M  V30 END BOND
M  V30 BEGIN COLLECTION
M  V30 MDLV30/STERAC1 ATOMS=(1 32)
M  V30 END COLLECTION
M  V30 END CTAB
M  END
>  <Molecule ChEMBL ID>
CHEMBL1760409

>  <Smiles>
COCCN(c1cccc(-c2ccc(Cl)cc2)c1C)S(=O)(=O)c1ccc(OC(C)C(=O)O)c(C)c1C

>  <IC50_nM>
12589.2

>  <Assay Description>
Displacement of [3H]GW 2433 from human PPARgamma by scintillation proximity assay

$$$$
CHEMBL1267
Actelion Java MolfileCreator 2.0

  0  0  0  0  0  0              0 V3000
M  V30 BEGIN CTAB
M  V30 COUNTS 26 28 0 0 0
M  V30 BEGIN ATOM
M  V30 1 S 5.2531 -3.5877 0.0 0
M  V30 2 C 5.5621 -4.5388 0.0 0
M  V30 3 C 6.0621 -3.0 0.0 0
M  V30 4 O 4.9743 -5.3478 0.0 0
M  V30 5 N 6.5621 -4.5388 0.0 0
M  V30 6 C 6.8711 -3.5877 0.0 0
M  V30 7 C 6.0621 -1.9999 0.0 0
M  V30 8 O 7.8222 -3.2787 0.0 0
M  V30 9 C 5.1961 -1.4999 0.0 0
M  V30 10 C 5.1961 -0.5 0.0 0
M  V30 11 C 4.3301 -1.9999 0.0 0
M  V30 12 C 4.3301 0.0 0.0 0
M  V30 13 C 3.4641 -1.5 0.0 0
M  V30 14 C 3.4641 -0.5 0.0 0
M  V30 15 O 2.598 0.0 0.0 0
M  V30 16 C 1.732 -0.5 0.0 0
M  V30 17 C 0.866 0.0 0.0 0
M  V30 18 C 0.0 -0.5 0.0 0
M  V30 19 N -0.866 0.0 0.0 0
M  V30 20 C 0.0 -1.4999 0.0 0
M  V30 21 C -1.732 -0.4999 0.0 0
M  V30 22 C -0.866 -1.9999 0.0 0
M  V30 23 C -1.732 -1.4999 0.0 0
M  V30 24 C -2.598 -1.9999 0.0 0
M  V30 25 O -3.4641 -1.4999 0.0 0
M  V30 26 C -2.598 -2.9999 0.0 0
M  V30 END ATOM
M  V30 BEGIN BOND
M  V30 1 1 1 2
M  V30 2 1 1 3
M  V30 3 2 2 4
M  V30 4 1 2 5
M  V30 5 1 3 6
M  V30 6 1 3 7
M  V30 7 2 6 8
M  V30 8 1 7 9
M  V30 9 2 9 10
M  V30 10 1 9 11
M  V30 11 1 10 12
M  V30 12 2 11 13
M  V30 13 2 12 14
M  V30 14 1 14 15
M  V30 15 1 15 16
M  V30 16 1 16 17
M  V30 17 1 17 18
M  V30 18 2 18 19
M  V30 19 1 18 20
M  V30 20 1 19 21
M  V30 21 2 20 22
M  V30 22 2 21 23
M  V30 23 1 23 24
M  V30 24 1 24 25
M  V30 25 1 24 26
M  V30 26 1 5 6
M  V30 27 1 13 14
M  V30 28 1 22 23
M  V30 END BOND
M  V30 END CTAB
M  END
>  <Molecule ChEMBL ID>
CHEMBL1267

>  <Smiles>
CC(O)c1ccc(CCOc2ccc(CC3SC(=O)NC3=O)cc2)nc1

>  <IC50_nM>
13000

>  <Assay Description>
Displacement of FITC-NCoR1 peptide from human 6His-tagged PPARgamma isoform 1 LBD (203 to 477 residues) expressed in Escherichia coli BL21(DE3) after 1 hr by FITC/TR-FRET assay

$$$$
CHEMBL523306
Actelion Java MolfileCreator 2.0

  0  0  0  0  0  0              0 V3000
M  V30 BEGIN CTAB
M  V30 COUNTS 38 41 0 0 0
M  V30 BEGIN ATOM
M  V30 1 O 4.9535 -2.6159 0.0 0
M  V30 2 C 4.5467 -1.7024 0.0 0
M  V30 3 N 5.0467 -0.8364 0.0 0
M  V30 4 N 3.5686 -1.4945 0.0 0
M  V30 5 C 6.0412 -0.7318 0.0 0
M  V30 6 C 4.3776 -0.0932 0.0 0
M  V30 7 C 3.4641 -0.5 0.0 0 CFG=2
M  V30 8 C 2.8254 -2.1636 0.0 0
M  V30 9 C 6.629 -1.5408 0.0 0
M  V30 10 C 6.448 0.1816 0.0 0
M  V30 11 O 4.5855 0.8848 0.0 0
M  V30 12 C 2.598 0.0 0.0 0
M  V30 13 C 3.0333 -3.1418 0.0 0
M  V30 14 C 7.6236 -1.4363 0.0 0
M  V30 15 C 7.4425 0.2861 0.0 0
M  V30 16 C 1.732 -0.5 0.0 0
M  V30 17 C 2.2902 -3.8109 0.0 0
M  V30 18 C 3.9844 -3.4508 0.0 0
M  V30 19 O 8.2113 -2.2453 0.0 0
M  V30 20 C 8.0303 -0.5228 0.0 0
M  V30 21 O 1.732 -1.5 0.0 0
M  V30 22 N 0.866 0.0 0.0 0
M  V30 23 C 2.4981 -4.789 0.0 0
M  V30 24 C 4.1923 -4.4289 0.0 0
M  V30 25 C 9.2059 -2.1408 0.0 0
M  V30 26 C 0.0 -0.5 0.0 0
M  V30 27 C 3.4492 -5.098 0.0 0
M  V30 28 C -0.866 0.0 0.0 0
M  V30 29 C 0.0 -1.4999 0.0 0
M  V30 30 O 3.6571 -6.0762 0.0 0
M  V30 31 C -1.732 -0.4999 0.0 0
M  V30 32 C -0.866 -1.9999 0.0 0
M  V30 33 C 4.6081 -6.3852 0.0 0
M  V30 34 C -1.732 -1.4999 0.0 0
M  V30 35 C -2.598 -1.9999 0.0 0
M  V30 36 O -2.598 -2.9999 0.0 0
M  V30 37 O -3.4641 -1.4999 0.0 0
M  V30 38 C -4.3301 -1.9999 0.0 0
M  V30 END ATOM
M  V30 BEGIN BOND
M  V30 1 2 1 2
M  V30 2 1 2 3
M  V30 3 1 2 4
M  V30 4 1 3 5
M  V30 5 1 3 6
M  V30 6 1 4 7
M  V30 7 1 4 8
M  V30 8 2 5 9
M  V30 9 1 5 10
M  V30 10 2 6 11
M  V30 11 1 7 12 CFG=1
M  V30 12 1 8 13
M  V30 13 1 9 14
M  V30 14 2 10 15
M  V30 15 1 12 16
M  V30 16 2 13 17
M  V30 17 1 13 18
M  V30 18 1 14 19
M  V30 19 2 14 20
M  V30 20 2 16 21
M  V30 21 1 16 22
M  V30 22 1 17 23
M  V30 23 2 18 24
M  V30 24 1 19 25
M  V30 25 1 22 26
M  V30 26 2 23 27
M  V30 27 2 26 28
M  V30 28 1 26 29
M  V30 29 1 27 30
M  V30 30 1 28 31
M  V30 31 2 29 32
M  V30 32 1 30 33
M  V30 33 2 31 34
M  V30 34 1 34 35
M  V30 35 2 35 36
M  V30 36 1 35 37
M  V30 37 1 37 38
M  V30 38 1 6 7
M  V30 39 1 15 20
M  V30 40 1 24 27
M  V30 41 1 32 34
M  V30 END BOND
M  V30 BEGIN COLLECTION
M  V30 MDLV30/STEABS ATOMS=(1 7)
M  V30 END COLLECTION
M  V30 END CTAB
M  END
>  <Molecule ChEMBL ID>
CHEMBL523306

>  <Smiles>
COC(=O)c1ccc(NC(=O)C[C@H]2C(=O)N(c3cccc(OC)c3)C(=O)N2Cc2ccc(OC)cc2)cc1

>  <IC50_nM>
13000

>  <Assay Description>
Displacement of fluorescent pan PPAR agonist form GST-tagged human PPARgamma ligand binding domain by FRET assay

$$$$
CHEMBL4098202
Actelion Java MolfileCreator 2.0

  0  0  0  0  0  0              0 V3000
M  V30 BEGIN CTAB
M  V30 COUNTS 28 31 0 0 0
M  V30 BEGIN ATOM
M  V30 1 S 4.4346 0.9945 0.0 0
M  V30 2 C 4.3301 0.0 0.0 0
M  V30 3 C 5.4128 1.2024 0.0 0
M  V30 4 N 5.2436 -0.4067 0.0 0
M  V30 5 N 3.4641 -0.5 0.0 0
M  V30 6 C 5.9128 0.3364 0.0 0
M  V30 7 C 5.9128 2.0684 0.0 0
M  V30 8 C 2.598 0.0 0.0 0
M  V30 9 C 3.4641 -1.5 0.0 0
M  V30 10 C 6.9128 0.3364 0.0 0
M  V30 11 C 6.9128 2.0684 0.0 0
M  V30 12 C 1.732 -0.5 0.0 0
M  V30 13 C 7.4128 1.2024 0.0 0
M  V30 14 O 0.866 0.0 0.0 0
M  V30 15 C 0.0 -0.5 0.0 0
M  V30 16 C -0.866 0.0 0.0 0
M  V30 17 C 0.0 -1.4999 0.0 0
M  V30 18 C -1.732 -0.4999 0.0 0
M  V30 19 C -0.866 -1.9999 0.0 0
M  V30 20 C -1.732 -1.4999 0.0 0
M  V30 21 C -2.598 -1.9999 0.0 0
M  V30 22 C -2.598 -2.9999 0.0 0
M  V30 23 S -1.789 -3.5877 0.0 0
M  V30 24 C -3.407 -3.5877 0.0 0
M  V30 25 C -2.098 -4.5388 0.0 0
M  V30 26 O -4.3581 -3.2787 0.0 0
M  V30 27 N -3.098 -4.5388 0.0 0
M  V30 28 O -1.5102 -5.3478 0.0 0
M  V30 END ATOM
M  V30 BEGIN BOND
M  V30 1 1 1 2
M  V30 2 1 1 3
M  V30 3 2 2 4
M  V30 4 1 2 5
M  V30 5 2 3 6
M  V30 6 1 3 7
M  V30 7 1 5 8
M  V30 8 1 5 9
M  V30 9 1 6 10
M  V30 10 2 7 11
M  V30 11 1 8 12
M  V30 12 2 10 13
M  V30 13 1 12 14
M  V30 14 1 14 15
M  V30 15 2 15 16
M  V30 16 1 15 17
M  V30 17 1 16 18
M  V30 18 2 17 19
M  V30 19 2 18 20
M  V30 20 1 20 21
M  V30 21 2 21 22
M  V30 22 1 22 23
M  V30 23 1 22 24
M  V30 24 1 23 25
M  V30 25 2 24 26
M  V30 26 1 24 27
M  V30 27 2 25 28
M  V30 28 1 4 6
M  V30 29 1 11 13
M  V30 30 1 19 20
M  V30 31 1 25 27
M  V30 END BOND
M  V30 END CTAB
M  END
>  <Molecule ChEMBL ID>
CHEMBL4098202

>  <Smiles>
CN(CCOc1ccc(/C=C2\SC(=O)NC2=O)cc1)c1nc2ccccc2s1

>  <IC50_nM>
13000

>  <Assay Description>
Transrepression activity at human PPARgamma expressed in HEK293 cells assessed as inhibition of TNFalpha induced NF-kappaB promoter activity pretreated for 4 hrs followed by TNFalpha stimulation after 3 hrs by luciferase reporter gene assay

$$$$
CHEMBL1092559
Actelion Java MolfileCreator 2.0

  0  0  0  0  0  0              0 V3000
M  V30 BEGIN CTAB
M  V30 COUNTS 36 40 0 0 0
M  V30 BEGIN ATOM
M  V30 1 O 2.598 -2.0 0.0 0
M  V30 2 C 3.4641 -1.5 0.0 0
M  V30 3 N 3.4641 -0.5 0.0 0
M  V30 4 C 4.3301 -2.0 0.0 0
M  V30 5 C 2.598 0.0 0.0 0
M  V30 6 C 4.3301 0.0 0.0 0
M  V30 7 C 5.1961 -1.5 0.0 0
M  V30 8 C 4.3301 -2.9999 0.0 0
M  V30 9 O 2.598 1.0 0.0 0
M  V30 10 N 1.732 -0.5 0.0 0
M  V30 11 O 5.1961 -0.5 0.0 0
M  V30 12 O 4.3301 1.0 0.0 0
M  V30 13 C 6.0621 -2.0 0.0 0
M  V30 14 O 3.5869 -3.6691 0.0 0
M  V30 15 C 5.1961 -3.4999 0.0 0
M  V30 16 C 0.866 0.0 0.0 0
M  V30 17 C 3.4641 1.5 0.0 0
M  V30 18 C 6.0621 -3.0 0.0 0
M  V30 19 C 3.9937 -4.5826 0.0 0
M  V30 20 C 4.9882 -4.4781 0.0 0 CFG=1
M  V30 21 C 0.0 -0.5 0.0 0
M  V30 22 O 6.9282 -3.5 0.0 0
M  V30 23 C 3.5869 -5.4962 0.0 0
M  V30 24 C 5.576 -5.2871 0.0 0
M  V30 25 C 5.9663 -4.2702 0.0 0
M  V30 26 O -0.9135 -0.0932 0.0 0
M  V30 27 C -0.1045 -1.4945 0.0 0
M  V30 28 C 4.1747 -6.3052 0.0 0
M  V30 29 O 6.5705 -5.1826 0.0 0
M  V30 30 C 5.1692 -6.2007 0.0 0
M  V30 31 C -1.5826 -0.8364 0.0 0
M  V30 32 C -1.0826 -1.7024 0.0 0
M  V30 33 O 3.768 -7.2187 0.0 0
M  V30 34 C 5.757 -7.0097 0.0 0
M  V30 35 O 5.3503 -7.9232 0.0 0
M  V30 36 C 6.7515 -6.9051 0.0 0
M  V30 END ATOM
M  V30 BEGIN BOND
M  V30 1 2 1 2
M  V30 2 1 2 3
M  V30 3 1 2 4
M  V30 4 1 3 5
M  V30 5 1 3 6
M  V30 6 2 4 7
M  V30 7 1 4 8
M  V30 8 2 5 9
M  V30 9 1 5 10
M  V30 10 1 6 11
M  V30 11 1 6 12
M  V30 12 1 7 13
M  V30 13 1 8 14
M  V30 14 2 8 15
M  V30 15 1 10 16
M  V30 16 1 12 17
M  V30 17 2 13 18
M  V30 18 1 14 19
M  V30 19 1 15 20
M  V30 20 1 16 21
M  V30 21 1 18 22
M  V30 22 2 19 23
M  V30 23 1 20 24
M  V30 24 1 20 25 CFG=1
M  V30 25 1 21 26
M  V30 26 2 21 27
M  V30 27 1 23 28
M  V30 28 2 24 29
M  V30 29 1 24 30
M  V30 30 1 26 31
M  V30 31 1 27 32
M  V30 32 1 28 33
M  V30 33 1 30 34
M  V30 34 2 34 35
M  V30 35 1 34 36
M  V30 36 1 7 11
M  V30 37 1 15 18
M  V30 38 1 19 20
M  V30 39 2 28 30
M  V30 40 2 31 32
M  V30 END BOND
M  V30 BEGIN COLLECTION
M  V30 MDLV30/STEABS ATOMS=(1 20)
M  V30 END COLLECTION
M  V30 END CTAB
M  END
>  <Molecule ChEMBL ID>
CHEMBL1092559

>  <Smiles>
COC1Oc2cc(O)c3c(c2C(=O)N1C(=O)NCc1ccco1)OC1=CC(O)=C(C(C)=O)C(=O)[C@]13C

>  <IC50_nM>
13000

>  <Assay Description>
Inhibition of PPARgamma assessed as transcriptional activity

$$$$
CHEMBL4440852
Actelion Java MolfileCreator 2.0

  0  0  0  0  0  0              0 V3000
M  V30 BEGIN CTAB
M  V30 COUNTS 35 38 0 0 0
M  V30 BEGIN ATOM
M  V30 1 F 0.0 4.4999 0.0 0
M  V30 2 C 0.866 3.9999 0.0 0
M  V30 3 C 0.866 2.9999 0.0 0
M  V30 4 C 1.732 4.4999 0.0 0
M  V30 5 C 1.732 2.4999 0.0 0
M  V30 6 C 2.598 3.9999 0.0 0
M  V30 7 C 2.598 3.0 0.0 0
M  V30 8 C 3.4641 2.5 0.0 0
M  V30 9 O 3.4641 1.4999 0.0 0
M  V30 10 C 4.3301 1.0 0.0 0
M  V30 11 C 4.3301 0.0 0.0 0
M  V30 12 C 5.1961 1.5 0.0 0
M  V30 13 C 5.1961 -0.4999 0.0 0
M  V30 14 C 3.4641 -0.5 0.0 0
M  V30 15 C 6.0621 1.0 0.0 0
M  V30 16 C 6.0621 0.0 0.0 0
M  V30 17 C 3.4641 -1.5 0.0 0
M  V30 18 O 6.9282 -0.4999 0.0 0
M  V30 19 C 2.598 -1.9999 0.0 0
M  V30 20 C 4.3301 -2.0 0.0 0
M  V30 21 C 6.9282 -1.4999 0.0 0
M  V30 22 O 1.732 -1.4999 0.0 0
M  V30 23 O 2.598 -2.9999 0.0 0
M  V30 24 C 4.3301 -3.0 0.0 0
M  V30 25 C 7.7942 -1.9999 0.0 0
M  V30 26 C 5.1961 -3.5 0.0 0
M  V30 27 N 7.7942 -2.9999 0.0 0
M  V30 28 C 8.6602 -1.4999 0.0 0
M  V30 29 C 8.6602 -3.4999 0.0 0
M  V30 30 C 9.5262 -1.9999 0.0 0
M  V30 31 C 9.5262 -2.9999 0.0 0
M  V30 32 C 8.6602 -4.4999 0.0 0
M  V30 33 C 10.3923 -3.4999 0.0 0
M  V30 34 C 9.5262 -4.9999 0.0 0
M  V30 35 C 10.3923 -4.4999 0.0 0
M  V30 END ATOM
M  V30 BEGIN BOND
M  V30 1 1 1 2
M  V30 2 2 2 3
M  V30 3 1 2 4
M  V30 4 1 3 5
M  V30 5 2 4 6
M  V30 6 2 5 7
M  V30 7 1 7 8
M  V30 8 1 8 9
M  V30 9 1 9 10
M  V30 10 2 10 11
M  V30 11 1 10 12
M  V30 12 1 11 13
M  V30 13 1 11 14
M  V30 14 2 12 15
M  V30 15 2 13 16
M  V30 16 2 14 17
M  V30 17 1 16 18
M  V30 18 1 17 19
M  V30 19 1 17 20
M  V30 20 1 18 21
M  V30 21 2 19 22
M  V30 22 1 19 23
M  V30 23 1 20 24
M  V30 24 1 21 25
M  V30 25 1 24 26
M  V30 26 2 25 27
M  V30 27 1 25 28
M  V30 28 1 27 29
M  V30 29 2 28 30
M  V30 30 1 29 31
M  V30 31 2 29 32
M  V30 32 2 31 33
M  V30 33 1 32 34
M  V30 34 1 33 35
M  V30 35 1 6 7
M  V30 36 1 15 16
M  V30 37 1 30 31
M  V30 38 2 34 35
M  V30 END BOND
M  V30 END CTAB
M  END
>  <Molecule ChEMBL ID>
CHEMBL4440852

>  <Smiles>
CCC/C(=C\c1cc(OCc2ccc3ccccc3n2)ccc1OCc1ccc(F)cc1)C(=O)O

>  <IC50_nM>
13100

>  <Assay Description>
Antagonist actvity in pFA-GAL4-DBD fused PPARgamma LBD (unknown origin) transfected in HEK293T cells assessed as inhibition of rosiglitazone-induced PPARgamma transactivation incubated for 24 hrs by luciferase reporter gene assay

$$$$
CHEMBL470575
Actelion Java MolfileCreator 2.0

  0  0  0  0  0  0              0 V3000
M  V30 BEGIN CTAB
M  V30 COUNTS 21 22 0 0 0
M  V30 BEGIN ATOM
M  V30 1 S 3.8971 0.0 0.0 0
M  V30 2 O 4.6471 1.299 0.0 0
M  V30 3 O 3.1471 1.299 0.0 0
M  V30 4 O 5.1961 -0.75 0.0 0
M  V30 5 C 2.598 -0.75 0.0 0
M  V30 6 C 6.4952 0.0 0.0 0
M  V30 7 C 1.299 0.0 0.0 0
M  V30 8 C 7.7942 -0.75 0.0 0
M  V30 9 C 6.4952 1.5 0.0 0
M  V30 10 C 0.0 -0.75 0.0 0
M  V30 11 C 9.0932 0.0 0.0 0
M  V30 12 C 7.7942 2.25 0.0 0
M  V30 13 C -1.299 0.0 0.0 0
M  V30 14 C 0.0 -2.25 0.0 0
M  V30 15 C 10.3923 -0.75 0.0 0
M  V30 16 C 9.0932 1.5 0.0 0
M  V30 17 C -2.598 -0.75 0.0 0
M  V30 18 C -1.299 -3.0 0.0 0
M  V30 19 O 10.3923 -2.25 0.0 0
M  V30 20 O 11.6913 0.0 0.0 0
M  V30 21 C -2.598 -2.25 0.0 0
M  V30 END ATOM
M  V30 BEGIN BOND
M  V30 1 2 1 2
M  V30 2 2 1 3
M  V30 3 1 1 4
M  V30 4 1 1 5
M  V30 5 1 4 6
M  V30 6 2 5 7
M  V30 7 2 6 8
M  V30 8 1 6 9
M  V30 9 1 7 10
M  V30 10 1 8 11
M  V30 11 2 9 12
M  V30 12 2 10 13
M  V30 13 1 10 14
M  V30 14 1 11 15
M  V30 15 2 11 16
M  V30 16 1 13 17
M  V30 17 2 14 18
M  V30 18 2 15 19
M  V30 19 1 15 20
M  V30 20 2 17 21
M  V30 21 1 12 16
M  V30 22 1 18 21
M  V30 END BOND
M  V30 END CTAB
M  END
>  <Molecule ChEMBL ID>
CHEMBL470575

>  <Smiles>
O=C(O)c1cccc(OS(=O)(=O)/C=C/c2ccccc2)c1

>  <IC50_nM>
13521

>  <Assay Description>
Displacement of [3H]BRL49653 from PPARgamma ligand binding domain by scintillation proximity assay

$$$$
CHEMBL234662
Actelion Java MolfileCreator 2.0

  0  0  0  0  0  0              0 V3000
M  V30 BEGIN CTAB
M  V30 COUNTS 32 35 0 0 0
M  V30 BEGIN ATOM
M  V30 1 S 6.0621 -1.9999 0.0 0
M  V30 2 C 5.1961 -1.4999 0.0 0
M  V30 3 C 6.0621 -2.9999 0.0 0
M  V30 4 C 4.3301 -1.9999 0.0 0
M  V30 5 C 5.1961 -0.4999 0.0 0
M  V30 6 C 6.9282 -3.4999 0.0 0
M  V30 7 C 3.4641 -1.4999 0.0 0
M  V30 8 C 4.1222 -2.9781 0.0 0
M  V30 9 C 4.3301 0.0 0.0 0
M  V30 10 C 6.9282 -4.5 0.0 0
M  V30 11 C 7.7942 -3.0 0.0 0
M  V30 12 C 3.4641 -0.5 0.0 0
M  V30 13 C 2.7209 -2.1691 0.0 0
M  V30 14 C 3.1276 -3.0826 0.0 0
M  V30 15 C 7.7942 -5.0 0.0 0
M  V30 16 C 8.6602 -3.5 0.0 0
M  V30 17 O 2.598 0.0 0.0 0
M  V30 18 C 8.6602 -4.5 0.0 0
M  V30 19 C 1.732 -0.5 0.0 0
M  V30 20 O 9.5262 -5.0 0.0 0
M  V30 21 C 0.866 0.0 0.0 0
M  V30 22 C 9.5262 -6.0 0.0 0
M  V30 23 O 0.866 1.0 0.0 0
M  V30 24 O 0.0 -0.5 0.0 0
M  V30 25 C 10.3923 -6.5 0.0 0
M  V30 26 C 10.3923 -7.5 0.0 0
M  V30 27 C 11.2583 -6.0 0.0 0
M  V30 28 C 11.2583 -8.0 0.0 0
M  V30 29 C 12.1243 -6.5 0.0 0
M  V30 30 C 12.1243 -7.5 0.0 0
M  V30 31 O 12.9903 -8.0 0.0 0
M  V30 32 C 13.8564 -7.5 0.0 0
M  V30 END ATOM
M  V30 BEGIN BOND
M  V30 1 1 1 2
M  V30 2 1 1 3
M  V30 3 2 2 4
M  V30 4 1 2 5
M  V30 5 1 3 6
M  V30 6 1 4 7
M  V30 7 1 4 8
M  V30 8 2 5 9
M  V30 9 2 6 10
M  V30 10 1 6 11
M  V30 11 2 7 12
M  V30 12 1 7 13
M  V30 13 1 8 14
M  V30 14 1 10 15
M  V30 15 2 11 16
M  V30 16 1 12 17
M  V30 17 2 15 18
M  V30 18 1 17 19
M  V30 19 1 18 20
M  V30 20 1 19 21
M  V30 21 1 20 22
M  V30 22 2 21 23
M  V30 23 1 21 24
M  V30 24 1 22 25
M  V30 25 2 25 26
M  V30 26 1 25 27
M  V30 27 1 26 28
M  V30 28 2 27 29
M  V30 29 2 28 30
M  V30 30 1 30 31
M  V30 31 1 31 32
M  V30 32 1 9 12
M  V30 33 1 13 14
M  V30 34 1 16 18
M  V30 35 1 29 30
M  V30 END BOND
M  V30 END CTAB
M  END
>  <Molecule ChEMBL ID>
CHEMBL234662

>  <Smiles>
COc1ccc(COc2ccc(CSc3ccc(OCC(=O)O)c4c3CCC4)cc2)cc1

>  <IC50_nM>
13800

>  <Assay Description>
Agonist activity at PPARgamma

$$$$
CHEMBL234662
Actelion Java MolfileCreator 2.0

  0  0  0  0  0  0              0 V3000
M  V30 BEGIN CTAB
M  V30 COUNTS 32 35 0 0 0
M  V30 BEGIN ATOM
M  V30 1 S 6.0621 -1.9999 0.0 0
M  V30 2 C 5.1961 -1.4999 0.0 0
M  V30 3 C 6.0621 -2.9999 0.0 0
M  V30 4 C 4.3301 -1.9999 0.0 0
M  V30 5 C 5.1961 -0.4999 0.0 0
M  V30 6 C 6.9282 -3.4999 0.0 0
M  V30 7 C 3.4641 -1.4999 0.0 0
M  V30 8 C 4.1222 -2.9781 0.0 0
M  V30 9 C 4.3301 0.0 0.0 0
M  V30 10 C 6.9282 -4.5 0.0 0
M  V30 11 C 7.7942 -3.0 0.0 0
M  V30 12 C 3.4641 -0.5 0.0 0
M  V30 13 C 2.7209 -2.1691 0.0 0
M  V30 14 C 3.1276 -3.0826 0.0 0
M  V30 15 C 7.7942 -5.0 0.0 0
M  V30 16 C 8.6602 -3.5 0.0 0
M  V30 17 O 2.598 0.0 0.0 0
M  V30 18 C 8.6602 -4.5 0.0 0
M  V30 19 C 1.732 -0.5 0.0 0
M  V30 20 O 9.5262 -5.0 0.0 0
M  V30 21 C 0.866 0.0 0.0 0
M  V30 22 C 9.5262 -6.0 0.0 0
M  V30 23 O 0.866 1.0 0.0 0
M  V30 24 O 0.0 -0.5 0.0 0
M  V30 25 C 10.3923 -6.5 0.0 0
M  V30 26 C 10.3923 -7.5 0.0 0
M  V30 27 C 11.2583 -6.0 0.0 0
M  V30 28 C 11.2583 -8.0 0.0 0
M  V30 29 C 12.1243 -6.5 0.0 0
M  V30 30 C 12.1243 -7.5 0.0 0
M  V30 31 O 12.9903 -8.0 0.0 0
M  V30 32 C 13.8564 -7.5 0.0 0
M  V30 END ATOM
M  V30 BEGIN BOND
M  V30 1 1 1 2
M  V30 2 1 1 3
M  V30 3 2 2 4
M  V30 4 1 2 5
M  V30 5 1 3 6
M  V30 6 1 4 7
M  V30 7 1 4 8
M  V30 8 2 5 9
M  V30 9 2 6 10
M  V30 10 1 6 11
M  V30 11 2 7 12
M  V30 12 1 7 13
M  V30 13 1 8 14
M  V30 14 1 10 15
M  V30 15 2 11 16
M  V30 16 1 12 17
M  V30 17 2 15 18
M  V30 18 1 17 19
M  V30 19 1 18 20
M  V30 20 1 19 21
M  V30 21 1 20 22
M  V30 22 2 21 23
M  V30 23 1 21 24
M  V30 24 1 22 25
M  V30 25 2 25 26
M  V30 26 1 25 27
M  V30 27 1 26 28
M  V30 28 2 27 29
M  V30 29 2 28 30
M  V30 30 1 30 31
M  V30 31 1 31 32
M  V30 32 1 9 12
M  V30 33 1 13 14
M  V30 34 1 16 18
M  V30 35 1 29 30
M  V30 END BOND
M  V30 END CTAB
M  END
>  <Molecule ChEMBL ID>
CHEMBL234662

>  <Smiles>
COc1ccc(COc2ccc(CSc3ccc(OCC(=O)O)c4c3CCC4)cc2)cc1

>  <IC50_nM>
13800

>  <Assay Description>
Displacement of [3H]5-(4-(3-(5-methyl-2-phenyloxazol-4-yl)propanoyl)benzyl)thiazolidine-2,4-dione from human PPARgamma after 2 hrs by SPA assay

$$$$
CHEMBL234662
Actelion Java MolfileCreator 2.0

  0  0  0  0  0  0              0 V3000
M  V30 BEGIN CTAB
M  V30 COUNTS 32 35 0 0 0
M  V30 BEGIN ATOM
M  V30 1 S 6.0621 -1.9999 0.0 0
M  V30 2 C 5.1961 -1.4999 0.0 0
M  V30 3 C 6.0621 -2.9999 0.0 0
M  V30 4 C 4.3301 -1.9999 0.0 0
M  V30 5 C 5.1961 -0.4999 0.0 0
M  V30 6 C 6.9282 -3.4999 0.0 0
M  V30 7 C 3.4641 -1.4999 0.0 0
M  V30 8 C 4.1222 -2.9781 0.0 0
M  V30 9 C 4.3301 0.0 0.0 0
M  V30 10 C 6.9282 -4.5 0.0 0
M  V30 11 C 7.7942 -3.0 0.0 0
M  V30 12 C 3.4641 -0.5 0.0 0
M  V30 13 C 2.7209 -2.1691 0.0 0
M  V30 14 C 3.1276 -3.0826 0.0 0
M  V30 15 C 7.7942 -5.0 0.0 0
M  V30 16 C 8.6602 -3.5 0.0 0
M  V30 17 O 2.598 0.0 0.0 0
M  V30 18 C 8.6602 -4.5 0.0 0
M  V30 19 C 1.732 -0.5 0.0 0
M  V30 20 O 9.5262 -5.0 0.0 0
M  V30 21 C 0.866 0.0 0.0 0
M  V30 22 C 9.5262 -6.0 0.0 0
M  V30 23 O 0.866 1.0 0.0 0
M  V30 24 O 0.0 -0.5 0.0 0
M  V30 25 C 10.3923 -6.5 0.0 0
M  V30 26 C 10.3923 -7.5 0.0 0
M  V30 27 C 11.2583 -6.0 0.0 0
M  V30 28 C 11.2583 -8.0 0.0 0
M  V30 29 C 12.1243 -6.5 0.0 0
M  V30 30 C 12.1243 -7.5 0.0 0
M  V30 31 O 12.9903 -8.0 0.0 0
M  V30 32 C 13.8564 -7.5 0.0 0
M  V30 END ATOM
M  V30 BEGIN BOND
M  V30 1 1 1 2
M  V30 2 1 1 3
M  V30 3 2 2 4
M  V30 4 1 2 5
M  V30 5 1 3 6
M  V30 6 1 4 7
M  V30 7 1 4 8
M  V30 8 2 5 9
M  V30 9 2 6 10
M  V30 10 1 6 11
M  V30 11 2 7 12
M  V30 12 1 7 13
M  V30 13 1 8 14
M  V30 14 1 10 15
M  V30 15 2 11 16
M  V30 16 1 12 17
M  V30 17 2 15 18
M  V30 18 1 17 19
M  V30 19 1 18 20
M  V30 20 1 19 21
M  V30 21 1 20 22
M  V30 22 2 21 23
M  V30 23 1 21 24
M  V30 24 1 22 25
M  V30 25 2 25 26
M  V30 26 1 25 27
M  V30 27 1 26 28
M  V30 28 2 27 29
M  V30 29 2 28 30
M  V30 30 1 30 31
M  V30 31 1 31 32
M  V30 32 1 9 12
M  V30 33 1 13 14
M  V30 34 1 16 18
M  V30 35 1 29 30
M  V30 END BOND
M  V30 END CTAB
M  END
>  <Molecule ChEMBL ID>
CHEMBL234662

>  <Smiles>
COc1ccc(COc2ccc(CSc3ccc(OCC(=O)O)c4c3CCC4)cc2)cc1

>  <IC50_nM>
13803.8

>  <Assay Description>
Agonist activity at PPARgamma

$$$$
CHEMBL604491
Actelion Java MolfileCreator 2.0

  0  0  0  0  0  0              0 V3000
M  V30 BEGIN CTAB
M  V30 COUNTS 32 35 0 0 0
M  V30 BEGIN ATOM
M  V30 1 O 6.9282 -4.5 0.0 0
M  V30 2 C 6.9282 -3.5 0.0 0
M  V30 3 O 7.7942 -3.0 0.0 0
M  V30 4 C 6.0621 -3.0 0.0 0 CFG=1
M  V30 5 C 5.1961 -3.5 0.0 0
M  V30 6 C 6.0621 -1.9999 0.0 0
M  V30 7 N 4.2826 -3.0932 0.0 0
M  V30 8 C 5.0916 -4.4945 0.0 0
M  V30 9 C 5.1961 -1.4999 0.0 0
M  V30 10 O 3.6134 -3.8364 0.0 0
M  V30 11 C 4.1134 -4.7024 0.0 0
M  V30 12 C 5.1961 -0.5 0.0 0
M  V30 13 C 4.3301 -1.9999 0.0 0
M  V30 14 C 3.7067 -5.6159 0.0 0
M  V30 15 C 4.3301 0.0 0.0 0
M  V30 16 C 3.4641 -1.5 0.0 0
M  V30 17 C 3.4641 -0.5 0.0 0
M  V30 18 C 2.598 0.0 0.0 0
M  V30 19 C 1.732 -0.5 0.0 0
M  V30 20 C 0.866 0.0 0.0 0
M  V30 21 C 0.0 -0.5 0.0 0
M  V30 22 N -0.9135 -0.0932 0.0 0
M  V30 23 C -0.1045 -1.4945 0.0 0
M  V30 24 C -1.5826 -0.8364 0.0 0
M  V30 25 O -1.0826 -1.7024 0.0 0
M  V30 26 C 0.6386 -2.1636 0.0 0
M  V30 27 C -2.5771 -0.7318 0.0 0
M  V30 28 C -2.9839 0.1816 0.0 0
M  V30 29 C -3.1649 -1.5408 0.0 0
M  V30 30 C -3.9784 0.2861 0.0 0
M  V30 31 C -4.1595 -1.4363 0.0 0
M  V30 32 C -4.5662 -0.5228 0.0 0
M  V30 END ATOM
M  V30 BEGIN BOND
M  V30 1 2 1 2
M  V30 2 1 2 3
M  V30 3 1 2 4
M  V30 4 1 4 5
M  V30 5 1 4 6 CFG=1
M  V30 6 2 5 7
M  V30 7 1 5 8
M  V30 8 1 6 9
M  V30 9 1 7 10
M  V30 10 2 8 11
M  V30 11 2 9 12
M  V30 12 1 9 13
M  V30 13 1 11 14
M  V30 14 1 12 15
M  V30 15 2 13 16
M  V30 16 2 15 17
M  V30 17 1 17 18
M  V30 18 1 18 19
M  V30 19 1 19 20
M  V30 20 1 20 21
M  V30 21 1 21 22
M  V30 22 2 21 23
M  V30 23 2 22 24
M  V30 24 1 23 25
M  V30 25 1 23 26
M  V30 26 1 24 27
M  V30 27 2 27 28
M  V30 28 1 27 29
M  V30 29 1 28 30
M  V30 30 2 29 31
M  V30 31 2 30 32
M  V30 32 1 10 11
M  V30 33 1 16 17
M  V30 34 1 24 25
M  V30 35 1 31 32
M  V30 END BOND
M  V30 BEGIN COLLECTION
M  V30 MDLV30/STERAC1 ATOMS=(1 4)
M  V30 END COLLECTION
M  V30 END CTAB
M  END
>  <Molecule ChEMBL ID>
CHEMBL604491

>  <Smiles>
Cc1cc(C(Cc2ccc(CCCc3nc(-c4ccccc4)oc3C)cc2)C(=O)O)no1

>  <IC50_nM>
14000

>  <Assay Description>
Displacement of [3H2]nTZD3 from GST-tagged human PPARgamma expressed in Escherichia coli by SPA

$$$$
CHEMBL4091398
Actelion Java MolfileCreator 2.0

  0  0  0  0  0  0              0 V3000
M  V30 BEGIN CTAB
M  V30 COUNTS 27 30 0 0 0
M  V30 BEGIN ATOM
M  V30 1 S 4.4346 0.9945 0.0 0
M  V30 2 C 4.3301 0.0 0.0 0
M  V30 3 C 5.4128 1.2024 0.0 0
M  V30 4 N 5.2436 -0.4067 0.0 0
M  V30 5 N 3.4641 -0.5 0.0 0
M  V30 6 C 5.9128 0.3364 0.0 0
M  V30 7 C 5.9128 2.0684 0.0 0
M  V30 8 C 2.598 0.0 0.0 0
M  V30 9 C 6.9128 0.3364 0.0 0
M  V30 10 C 6.9128 2.0684 0.0 0
M  V30 11 C 1.732 -0.5 0.0 0
M  V30 12 C 7.4128 1.2024 0.0 0
M  V30 13 O 0.866 0.0 0.0 0
M  V30 14 C 0.0 -0.5 0.0 0
M  V30 15 C -0.866 0.0 0.0 0
M  V30 16 C 0.0 -1.4999 0.0 0
M  V30 17 C -1.732 -0.4999 0.0 0
M  V30 18 C -0.866 -1.9999 0.0 0
M  V30 19 C -1.732 -1.4999 0.0 0
M  V30 20 C -2.598 -1.9999 0.0 0
M  V30 21 C -2.598 -2.9999 0.0 0
M  V30 22 S -1.789 -3.5877 0.0 0
M  V30 23 C -3.407 -3.5877 0.0 0
M  V30 24 C -2.098 -4.5388 0.0 0
M  V30 25 O -4.3581 -3.2787 0.0 0
M  V30 26 N -3.098 -4.5388 0.0 0
M  V30 27 O -1.5102 -5.3478 0.0 0
M  V30 END ATOM
M  V30 BEGIN BOND
M  V30 1 1 1 2
M  V30 2 1 1 3
M  V30 3 2 2 4
M  V30 4 1 2 5
M  V30 5 2 3 6
M  V30 6 1 3 7
M  V30 7 1 5 8
M  V30 8 1 6 9
M  V30 9 2 7 10
M  V30 10 1 8 11
M  V30 11 2 9 12
M  V30 12 1 11 13
M  V30 13 1 13 14
M  V30 14 2 14 15
M  V30 15 1 14 16
M  V30 16 1 15 17
M  V30 17 2 16 18
M  V30 18 2 17 19
M  V30 19 1 19 20
M  V30 20 2 20 21
M  V30 21 1 21 22
M  V30 22 1 21 23
M  V30 23 1 22 24
M  V30 24 2 23 25
M  V30 25 1 23 26
M  V30 26 2 24 27
M  V30 27 1 4 6
M  V30 28 1 10 12
M  V30 29 1 18 19
M  V30 30 1 24 26
M  V30 END BOND
M  V30 END CTAB
M  END
>  <Molecule ChEMBL ID>
CHEMBL4091398

>  <Smiles>
O=C1NC(=O)/C(=C/c2ccc(OCCNc3nc4ccccc4s3)cc2)S1

>  <IC50_nM>
14000

>  <Assay Description>
Transrepression activity at human PPARgamma expressed in HEK293 cells assessed as inhibition of TNFalpha induced NF-kappaB promoter activity pretreated for 4 hrs followed by TNFalpha stimulation after 3 hrs by luciferase reporter gene assay

$$$$
CHEMBL4636990
Actelion Java MolfileCreator 2.0

  0  0  0  0  0  0              0 V3000
M  V30 BEGIN CTAB
M  V30 COUNTS 39 42 0 0 0
M  V30 BEGIN ATOM
M  V30 1 S 6.4952 0.0 0.0 0
M  V30 2 O 7.2452 1.299 0.0 0
M  V30 3 O 5.7452 1.299 0.0 0
M  V30 4 N 5.1961 -0.75 0.0 0
M  V30 5 C 7.7942 -0.75 0.0 0
M  V30 6 C 3.8971 0.0 0.0 0
M  V30 7 C 7.7942 -2.25 0.0 0
M  V30 8 C 9.0932 0.0 0.0 0
M  V30 9 O 3.8971 1.5 0.0 0
M  V30 10 C 2.598 -0.75 0.0 0
M  V30 11 C 9.0932 -3.0 0.0 0
M  V30 12 C 10.3923 -0.75 0.0 0
M  V30 13 O 1.299 0.0 0.0 0
M  V30 14 C 1.848 -2.049 0.0 0
M  V30 15 C 3.348 -2.049 0.0 0
M  V30 16 C 10.3923 -2.25 0.0 0
M  V30 17 C 0.0 -0.75 0.0 0
M  V30 18 C -1.299 0.0 0.0 0
M  V30 19 C 0.0 -2.25 0.0 0
M  V30 20 C -2.598 -0.75 0.0 0
M  V30 21 C -1.299 -3.0 0.0 0
M  V30 22 C -2.598 -2.25 0.0 0
M  V30 23 C -3.8971 -3.0 0.0 0
M  V30 24 C -3.8971 -4.5 0.0 0
M  V30 25 O -5.1961 -5.25 0.0 0
M  V30 26 C -5.1961 -6.75 0.0 0
M  V30 27 C -6.4952 -7.5 0.0 0
M  V30 28 C -3.8971 -7.5 0.0 0
M  V30 29 C -6.4952 -9.0 0.0 0
M  V30 30 C -3.8971 -9.0 0.0 0
M  V30 31 C -5.1961 -9.75 0.0 0
M  V30 32 N -5.1961 -11.25 0.0 0
M  V30 33 N -6.4952 -12.0 0.0 0
M  V30 34 C -6.4952 -13.5 0.0 0
M  V30 35 C -7.7942 -14.25 0.0 0
M  V30 36 C -5.1961 -14.25 0.0 0
M  V30 37 C -7.7942 -15.75 0.0 0
M  V30 38 C -5.1961 -15.75 0.0 0
M  V30 39 C -6.4952 -16.5 0.0 0
M  V30 END ATOM
M  V30 BEGIN BOND
M  V30 1 2 1 2
M  V30 2 2 1 3
M  V30 3 1 1 4
M  V30 4 1 1 5
M  V30 5 1 4 6
M  V30 6 2 5 7
M  V30 7 1 5 8
M  V30 8 2 6 9
M  V30 9 1 6 10
M  V30 10 1 7 11
M  V30 11 2 8 12
M  V30 12 1 10 13
M  V30 13 1 10 14
M  V30 14 1 10 15
M  V30 15 2 11 16
M  V30 16 1 13 17
M  V30 17 2 17 18
M  V30 18 1 17 19
M  V30 19 1 18 20
M  V30 20 2 19 21
M  V30 21 2 20 22
M  V30 22 1 22 23
M  V30 23 1 23 24
M  V30 24 1 24 25
M  V30 25 1 25 26
M  V30 26 2 26 27
M  V30 27 1 26 28
M  V30 28 1 27 29
M  V30 29 2 28 30
M  V30 30 2 29 31
M  V30 31 1 31 32
M  V30 32 2 32 33
M  V30 33 1 33 34
M  V30 34 2 34 35
M  V30 35 1 34 36
M  V30 36 1 35 37
M  V30 37 2 36 38
M  V30 38 2 37 39
M  V30 39 1 12 16
M  V30 40 1 21 22
M  V30 41 1 30 31
M  V30 42 1 38 39
M  V30 END BOND
M  V30 END CTAB
M  END
>  <Molecule ChEMBL ID>
CHEMBL4636990

>  <Smiles>
CC(C)(Oc1ccc(CCOc2ccc(/N=N/c3ccccc3)cc2)cc1)C(=O)NS(=O)(=O)c1ccccc1

>  <IC50_nM>
14000

>  <Assay Description>
Antagonist activity at GAL4-tagged human PPARgamma LBD expressed in human HepG2 cells assessed as inhibition of Wy14,643-induced receptor transactivation incubated for 20 to 22 hrs by luciferase reporter gene assay

$$$$
CHEMBL595440
Actelion Java MolfileCreator 2.0

  0  0  0  0  0  0              0 V3000
M  V30 BEGIN CTAB
M  V30 COUNTS 31 34 0 0 0
M  V30 BEGIN ATOM
M  V30 1 O 6.9282 -4.5 0.0 0
M  V30 2 C 6.9282 -3.5 0.0 0
M  V30 3 O 7.7942 -3.0 0.0 0
M  V30 4 C 6.0621 -3.0 0.0 0 CFG=2
M  V30 5 N 5.1961 -3.5 0.0 0
M  V30 6 C 6.0621 -1.9999 0.0 0
M  V30 7 N 4.2826 -3.0932 0.0 0
M  V30 8 C 5.0916 -4.4945 0.0 0
M  V30 9 C 5.1961 -1.4999 0.0 0
M  V30 10 N 3.6134 -3.8364 0.0 0
M  V30 11 C 4.1134 -4.7024 0.0 0
M  V30 12 C 5.1961 -0.5 0.0 0
M  V30 13 C 4.3301 -1.9999 0.0 0
M  V30 14 C 4.3301 0.0 0.0 0
M  V30 15 C 3.4641 -1.5 0.0 0
M  V30 16 C 3.4641 -0.5 0.0 0
M  V30 17 C 2.598 0.0 0.0 0
M  V30 18 C 1.732 -0.5 0.0 0
M  V30 19 C 0.866 0.0 0.0 0
M  V30 20 C 0.0 -0.5 0.0 0
M  V30 21 N -0.9135 -0.0932 0.0 0
M  V30 22 C -0.1045 -1.4945 0.0 0
M  V30 23 C -1.5826 -0.8364 0.0 0
M  V30 24 O -1.0826 -1.7024 0.0 0
M  V30 25 C 0.6386 -2.1636 0.0 0
M  V30 26 C -2.5771 -0.7318 0.0 0
M  V30 27 C -2.9839 0.1816 0.0 0
M  V30 28 C -3.1649 -1.5408 0.0 0
M  V30 29 C -3.9784 0.2861 0.0 0
M  V30 30 C -4.1595 -1.4363 0.0 0
M  V30 31 C -4.5662 -0.5228 0.0 0
M  V30 END ATOM
M  V30 BEGIN BOND
M  V30 1 2 1 2
M  V30 2 1 2 3
M  V30 3 1 2 4
M  V30 4 1 4 5 CFG=3
M  V30 5 1 4 6
M  V30 6 1 5 7
M  V30 7 1 5 8
M  V30 8 1 6 9
M  V30 9 2 7 10
M  V30 10 2 8 11
M  V30 11 2 9 12
M  V30 12 1 9 13
M  V30 13 1 12 14
M  V30 14 2 13 15
M  V30 15 2 14 16
M  V30 16 1 16 17
M  V30 17 1 17 18
M  V30 18 1 18 19
M  V30 19 1 19 20
M  V30 20 1 20 21
M  V30 21 2 20 22
M  V30 22 2 21 23
M  V30 23 1 22 24
M  V30 24 1 22 25
M  V30 25 1 23 26
M  V30 26 2 26 27
M  V30 27 1 26 28
M  V30 28 1 27 29
M  V30 29 2 28 30
M  V30 30 2 29 31
M  V30 31 1 10 11
M  V30 32 1 15 16
M  V30 33 1 23 24
M  V30 34 1 30 31
M  V30 END BOND
M  V30 BEGIN COLLECTION
M  V30 MDLV30/STEABS ATOMS=(1 4)
M  V30 END COLLECTION
M  V30 END CTAB
M  END
>  <Molecule ChEMBL ID>
CHEMBL595440

>  <Smiles>
Cc1oc(-c2ccccc2)nc1CCCc1ccc(C[C@H](C(=O)O)n2ccnn2)cc1

>  <IC50_nM>
14000

>  <Assay Description>
Displacement of [3H2]nTZD3 from GST-tagged human PPARgamma expressed in Escherichia coli by SPA

$$$$
CHEMBL4435145
Actelion Java MolfileCreator 2.0

  0  0  0  0  0  0              0 V3000
M  V30 BEGIN CTAB
M  V30 COUNTS 28 31 0 0 0
M  V30 BEGIN ATOM
M  V30 1 Cl 2.598 0.9999 0.0 0
M  V30 2 C 1.732 1.4999 0.0 0
M  V30 3 C 0.866 0.9999 0.0 0
M  V30 4 C 1.732 2.4999 0.0 0
M  V30 5 C 0.0 1.5 0.0 0
M  V30 6 C 0.866 0.0 0.0 0
M  V30 7 C 0.866 3.0 0.0 0
M  V30 8 Cl -0.866 1.0 0.0 0
M  V30 9 C 0.0 2.5 0.0 0
M  V30 10 O 1.732 -0.5 0.0 0
M  V30 11 N 0.0 -0.5 0.0 0
M  V30 12 N -0.9135 -0.0932 0.0 0
M  V30 13 C -0.1045 -1.4945 0.0 0
M  V30 14 C -1.5826 -0.8364 0.0 0
M  V30 15 C -1.0826 -1.7024 0.0 0
M  V30 16 C 0.3954 -2.3605 0.0 0
M  V30 17 C -2.5771 -0.7318 0.0 0
M  V30 18 S -1.1872 -2.6969 0.0 0
M  V30 19 C -0.2736 -3.1036 0.0 0
M  V30 20 C -2.9839 0.1816 0.0 0
M  V30 21 C -3.1649 -1.5408 0.0 0
M  V30 22 C -0.0657 -4.0818 0.0 0
M  V30 23 C -3.9784 0.2861 0.0 0
M  V30 24 C -4.1595 -1.4363 0.0 0
M  V30 25 C -4.5662 -0.5228 0.0 0
M  V30 26 C -5.5607 -0.4182 0.0 0
M  V30 27 O -5.9675 0.4952 0.0 0
M  V30 28 O -6.1485 -1.2273 0.0 0
M  V30 END ATOM
M  V30 BEGIN BOND
M  V30 1 1 1 2
M  V30 2 2 2 3
M  V30 3 1 2 4
M  V30 4 1 3 5
M  V30 5 1 3 6
M  V30 6 2 4 7
M  V30 7 1 5 8
M  V30 8 2 5 9
M  V30 9 2 6 10
M  V30 10 1 6 11
M  V30 11 1 11 12
M  V30 12 1 11 13
M  V30 13 2 12 14
M  V30 14 2 13 15
M  V30 15 1 13 16
M  V30 16 1 14 17
M  V30 17 1 15 18
M  V30 18 2 16 19
M  V30 19 2 17 20
M  V30 20 1 17 21
M  V30 21 1 19 22
M  V30 22 1 20 23
M  V30 23 2 21 24
M  V30 24 2 23 25
M  V30 25 1 25 26
M  V30 26 2 26 27
M  V30 27 1 26 28
M  V30 28 1 7 9
M  V30 29 1 14 15
M  V30 30 1 18 19
M  V30 31 1 24 25
M  V30 END BOND
M  V30 END CTAB
M  END
>  <Molecule ChEMBL ID>
CHEMBL4435145

>  <Smiles>
Cc1cc2c(s1)c(-c1ccc(C(=O)O)cc1)nn2C(=O)c1c(Cl)cccc1Cl

>  <IC50_nM>
14700

>  <Assay Description>
Inverse agonist activity at His6-tagged PPARgamma LBD (unknown origin) assessed as inhibition of rosiglitazone-induced N-terminal biotinylated co-activator SRC1 box2 peptide recruitment measured after 30 mins by TR-FRET assay

$$$$
CHEMBL369725
Actelion Java MolfileCreator 2.0

  0  0  0  0  0  0              0 V3000
M  V30 BEGIN CTAB
M  V30 COUNTS 31 33 0 0 0
M  V30 BEGIN ATOM
M  V30 1 Cl 9.0932 1.5 0.0 0
M  V30 2 C 9.0932 0.0 0.0 0
M  V30 3 C 7.7942 -0.75 0.0 0
M  V30 4 C 10.3923 -0.75 0.0 0
M  V30 5 O 6.4951 0.0 0.0 0
M  V30 6 C 7.7942 -2.25 0.0 0
M  V30 7 C 10.3923 -2.25 0.0 0
M  V30 8 C 5.1961 -0.75 0.0 0
M  V30 9 C 9.0932 -3.0 0.0 0
M  V30 10 C 11.6913 -3.0 0.0 0
M  V30 11 C 3.8971 0.0 0.0 0
M  V30 12 C 11.6913 -4.5 0.0 0
M  V30 13 C 13.1913 -3.0 0.0 0
M  V30 14 C 12.4413 -1.7009 0.0 0
M  V30 15 C 2.598 -0.75 0.0 0
M  V30 16 C 12.9903 -5.25 0.0 0
M  V30 17 O 1.299 0.0 0.0 0
M  V30 18 C 0.0 -0.75 0.0 0
M  V30 19 C -1.299 0.0 0.0 0
M  V30 20 C 0.0 -2.25 0.0 0
M  V30 21 C -2.598 -0.75 0.0 0
M  V30 22 C -1.299 -3.0 0.0 0
M  V30 23 O -3.8971 0.0 0.0 0
M  V30 24 C -2.598 -2.25 0.0 0
M  V30 25 C -5.1961 -0.75 0.0 0 CFG=1
M  V30 26 C -3.8971 -3.0 0.0 0
M  V30 27 C -6.4951 0.0 0.0 0
M  V30 28 C -5.1961 -2.25 0.0 0
M  V30 29 C -6.4951 -1.5 0.0 0
M  V30 30 O -7.7942 -0.75 0.0 0
M  V30 31 O -6.4951 1.5 0.0 0
M  V30 END ATOM
M  V30 BEGIN BOND
M  V30 1 1 1 2
M  V30 2 2 2 3
M  V30 3 1 2 4
M  V30 4 1 3 5
M  V30 5 1 3 6
M  V30 6 2 4 7
M  V30 7 1 5 8
M  V30 8 2 6 9
M  V30 9 1 7 10
M  V30 10 1 8 11
M  V30 11 1 10 12
M  V30 12 1 10 13
M  V30 13 1 10 14
M  V30 14 1 11 15
M  V30 15 1 12 16
M  V30 16 1 15 17
M  V30 17 1 17 18
M  V30 18 2 18 19
M  V30 19 1 18 20
M  V30 20 1 19 21
M  V30 21 2 20 22
M  V30 22 1 21 23
M  V30 23 2 21 24
M  V30 24 1 23 25
M  V30 25 1 24 26
M  V30 26 1 25 27
M  V30 27 1 25 28
M  V30 28 1 25 29 CFG=1
M  V30 29 2 27 30
M  V30 30 1 27 31
M  V30 31 1 7 9
M  V30 32 1 22 24
M  V30 33 1 26 28
M  V30 END BOND
M  V30 BEGIN COLLECTION
M  V30 MDLV30/STEABS ATOMS=(1 25)
M  V30 END COLLECTION
M  V30 END CTAB
M  END
>  <Molecule ChEMBL ID>
CHEMBL369725

>  <Smiles>
CCC(C)(C)c1ccc(OCCCOc2ccc3c(c2)O[C@@](C)(C(=O)O)CC3)c(Cl)c1

>  <IC50_nM>
14996.9

>  <Assay Description>
Agonist activity at PPARgamma

$$$$
CHEMBL254989
Actelion Java MolfileCreator 2.0

  0  0  0  0  0  0              0 V3000
M  V30 BEGIN CTAB
M  V30 COUNTS 37 40 0 0 0
M  V30 BEGIN ATOM
M  V30 1 O 3.4641 -1.5 0.0 0
M  V30 2 C 3.4641 -0.5 0.0 0
M  V30 3 O 4.3301 0.0 0.0 0
M  V30 4 N 2.598 0.0 0.0 0
M  V30 5 C 5.1961 -0.5 0.0 0
M  V30 6 C 2.598 1.0 0.0 0
M  V30 7 C 1.732 -0.5 0.0 0
M  V30 8 C 5.1961 -1.5 0.0 0
M  V30 9 C 6.0621 0.0 0.0 0
M  V30 10 C 1.732 1.5 0.0 0
M  V30 11 C 1.732 -1.5 0.0 0
M  V30 12 C 6.0621 -2.0 0.0 0
M  V30 13 C 6.9282 -0.5 0.0 0
M  V30 14 C 1.732 2.5 0.0 0
M  V30 15 C 0.866 1.0 0.0 0
M  V30 16 O 2.598 -2.0 0.0 0
M  V30 17 O 0.866 -2.0 0.0 0
M  V30 18 C 6.9282 -1.5 0.0 0
M  V30 19 C 0.866 3.0 0.0 0
M  V30 20 C 0.0 1.5 0.0 0
M  V30 21 O 7.7942 -2.0 0.0 0
M  V30 22 C 0.0 2.5 0.0 0
M  V30 23 O -0.866 3.0 0.0 0
M  V30 24 C -1.732 2.5 0.0 0
M  V30 25 C -2.598 3.0 0.0 0
M  V30 26 C -3.4641 2.5 0.0 0
M  V30 27 N -4.3776 2.9067 0.0 0
M  V30 28 C -3.5686 1.5054 0.0 0
M  V30 29 C -5.0467 2.1635 0.0 0
M  V30 30 O -4.5467 1.2975 0.0 0
M  V30 31 C -2.8254 0.8363 0.0 0
M  V30 32 C -6.0412 2.2681 0.0 0
M  V30 33 C -6.448 3.1816 0.0 0
M  V30 34 C -6.629 1.4591 0.0 0
M  V30 35 C -7.4425 3.2861 0.0 0
M  V30 36 C -7.6236 1.5636 0.0 0
M  V30 37 C -8.0303 2.4771 0.0 0
M  V30 END ATOM
M  V30 BEGIN BOND
M  V30 1 2 1 2
M  V30 2 1 2 3
M  V30 3 1 2 4
M  V30 4 1 3 5
M  V30 5 1 4 6
M  V30 6 1 4 7
M  V30 7 2 5 8
M  V30 8 1 5 9
M  V30 9 1 6 10
M  V30 10 1 7 11
M  V30 11 1 8 12
M  V30 12 2 9 13
M  V30 13 2 10 14
M  V30 14 1 10 15
M  V30 15 2 11 16
M  V30 16 1 11 17
M  V30 17 2 12 18
M  V30 18 1 14 19
M  V30 19 2 15 20
M  V30 20 1 18 21
M  V30 21 2 19 22
M  V30 22 1 22 23
M  V30 23 1 23 24
M  V30 24 1 24 25
M  V30 25 1 25 26
M  V30 26 1 26 27
M  V30 27 2 26 28
M  V30 28 2 27 29
M  V30 29 1 28 30
M  V30 30 1 28 31
M  V30 31 1 29 32
M  V30 32 2 32 33
M  V30 33 1 32 34
M  V30 34 1 33 35
M  V30 35 2 34 36
M  V30 36 2 35 37
M  V30 37 1 13 18
M  V30 38 1 20 22
M  V30 39 1 29 30
M  V30 40 1 36 37
M  V30 END BOND
M  V30 END CTAB
M  END
>  <Molecule ChEMBL ID>
CHEMBL254989

>  <Smiles>
Cc1oc(-c2ccccc2)nc1CCOc1ccc(CN(CC(=O)O)C(=O)Oc2ccc(O)cc2)cc1

>  <IC50_nM>
15000

>  <Assay Description>
Binding affinity at PPAR gamma receptor

$$$$
CHEMBL419019
Actelion Java MolfileCreator 2.0

  0  0  0  0  0  0              0 V3000
M  V30 BEGIN CTAB
M  V30 COUNTS 33 36 0 0 0
M  V30 BEGIN ATOM
M  V30 1 O 15.5884 -0.7499 0.0 0
M  V30 2 C 14.2894 0.0 0.0 0
M  V30 3 O 14.2894 1.5 0.0 0
M  V30 4 C 12.9903 -0.75 0.0 0 CFG=1
M  V30 5 O 11.6913 0.0 0.0 0
M  V30 6 C 12.9903 -2.25 0.0 0
M  V30 7 C 12.9903 0.75 0.0 0
M  V30 8 C 10.3923 -0.75 0.0 0
M  V30 9 C 11.6913 -3.0 0.0 0
M  V30 10 C 11.6913 1.5 0.0 0
M  V30 11 C 10.3923 -2.25 0.0 0
M  V30 12 C 9.0932 0.0 0.0 0
M  V30 13 C 9.0932 -3.0 0.0 0
M  V30 14 C 7.7942 -0.75 0.0 0
M  V30 15 C 7.7942 -2.25 0.0 0
M  V30 16 O 6.4951 0.0 0.0 0
M  V30 17 C 5.1961 -0.75 0.0 0
M  V30 18 C 3.8971 0.0 0.0 0
M  V30 19 C 2.598 -0.75 0.0 0
M  V30 20 O 1.299 0.0 0.0 0
M  V30 21 C 0.0 -0.75 0.0 0
M  V30 22 C -1.299 0.0 0.0 0
M  V30 23 C 0.0 -2.25 0.0 0
M  V30 24 C -2.598 -0.7499 0.0 0
M  V30 25 C -1.299 -2.9999 0.0 0
M  V30 26 C -2.598 -2.2499 0.0 0
M  V30 27 O -3.8971 -2.9999 0.0 0
M  V30 28 C -3.8971 -4.4999 0.0 0
M  V30 29 C -5.1961 -5.2499 0.0 0
M  V30 30 C -2.598 -5.2499 0.0 0
M  V30 31 C -5.1961 -6.7499 0.0 0
M  V30 32 C -2.598 -6.7499 0.0 0
M  V30 33 C -3.8971 -7.4999 0.0 0
M  V30 END ATOM
M  V30 BEGIN BOND
M  V30 1 2 1 2
M  V30 2 1 2 3
M  V30 3 1 2 4
M  V30 4 1 4 5
M  V30 5 1 4 6
M  V30 6 1 4 7 CFG=1
M  V30 7 1 5 8
M  V30 8 1 6 9
M  V30 9 1 7 10
M  V30 10 2 8 11
M  V30 11 1 8 12
M  V30 12 1 11 13
M  V30 13 2 12 14
M  V30 14 2 13 15
M  V30 15 1 14 16
M  V30 16 1 16 17
M  V30 17 1 17 18
M  V30 18 1 18 19
M  V30 19 1 19 20
M  V30 20 1 20 21
M  V30 21 2 21 22
M  V30 22 1 21 23
M  V30 23 1 22 24
M  V30 24 2 23 25
M  V30 25 2 24 26
M  V30 26 1 26 27
M  V30 27 1 27 28
M  V30 28 2 28 29
M  V30 29 1 28 30
M  V30 30 1 29 31
M  V30 31 2 30 32
M  V30 32 2 31 33
M  V30 33 1 9 11
M  V30 34 1 14 15
M  V30 35 1 25 26
M  V30 36 1 32 33
M  V30 END BOND
M  V30 BEGIN COLLECTION
M  V30 MDLV30/STERAC1 ATOMS=(1 4)
M  V30 END COLLECTION
M  V30 END CTAB
M  END
>  <Molecule ChEMBL ID>
CHEMBL419019

>  <Smiles>
CCC1(C(=O)O)CCc2ccc(OCCCOc3ccc(Oc4ccccc4)cc3)cc2O1

>  <IC50_nM>
15000

>  <Assay Description>
In vitro binding affinity for human peroxisome proliferator activated receptor gamma using scintillation proximity assay (SPA)

$$$$
CHEMBL178630
Actelion Java MolfileCreator 2.0

  0  0  0  0  0  0              0 V3000
M  V30 BEGIN CTAB
M  V30 COUNTS 30 32 0 0 0
M  V30 BEGIN ATOM
M  V30 1 Cl 6.0621 1.0 0.0 0
M  V30 2 C 6.0621 0.0 0.0 0
M  V30 3 C 5.1961 -0.5 0.0 0
M  V30 4 C 6.9282 -0.4999 0.0 0
M  V30 5 O 4.3301 0.0 0.0 0
M  V30 6 C 5.1961 -1.4999 0.0 0
M  V30 7 C 6.9282 -1.4999 0.0 0
M  V30 8 C 3.4641 -0.5 0.0 0
M  V30 9 C 6.0621 -1.9999 0.0 0
M  V30 10 O 7.7942 -1.9999 0.0 0
M  V30 11 C 2.598 0.0 0.0 0
M  V30 12 C 7.7942 -2.9999 0.0 0
M  V30 13 C 1.732 -0.5 0.0 0
M  V30 14 C 6.9282 -3.4999 0.0 0
M  V30 15 C 8.6602 -3.4999 0.0 0
M  V30 16 O 0.866 0.0 0.0 0
M  V30 17 C 0.0 -0.5 0.0 0
M  V30 18 C -0.866 0.0 0.0 0
M  V30 19 C 0.0 -1.4999 0.0 0
M  V30 20 C -1.732 -0.4999 0.0 0
M  V30 21 C -0.866 -1.9999 0.0 0
M  V30 22 O -2.598 0.0 0.0 0
M  V30 23 C -1.732 -1.4999 0.0 0
M  V30 24 C -3.4641 -0.4999 0.0 0 CFG=1
M  V30 25 C -2.598 -1.9999 0.0 0
M  V30 26 C -4.3301 0.0 0.0 0
M  V30 27 C -3.4641 -1.4999 0.0 0
M  V30 28 C -4.3301 -0.9999 0.0 0
M  V30 29 O -5.1961 -0.4999 0.0 0
M  V30 30 O -4.3301 1.0 0.0 0
M  V30 END ATOM
M  V30 BEGIN BOND
M  V30 1 1 1 2
M  V30 2 2 2 3
M  V30 3 1 2 4
M  V30 4 1 3 5
M  V30 5 1 3 6
M  V30 6 2 4 7
M  V30 7 1 5 8
M  V30 8 2 6 9
M  V30 9 1 7 10
M  V30 10 1 8 11
M  V30 11 1 10 12
M  V30 12 1 11 13
M  V30 13 1 12 14
M  V30 14 1 12 15
M  V30 15 1 13 16
M  V30 16 1 16 17
M  V30 17 2 17 18
M  V30 18 1 17 19
M  V30 19 1 18 20
M  V30 20 2 19 21
M  V30 21 1 20 22
M  V30 22 2 20 23
M  V30 23 1 22 24
M  V30 24 1 23 25
M  V30 25 1 24 26
M  V30 26 1 24 27
M  V30 27 1 24 28 CFG=1
M  V30 28 2 26 29
M  V30 29 1 26 30
M  V30 30 1 7 9
M  V30 31 1 21 23
M  V30 32 1 25 27
M  V30 END BOND
M  V30 BEGIN COLLECTION
M  V30 MDLV30/STEABS ATOMS=(1 24)
M  V30 END COLLECTION
M  V30 END CTAB
M  END
>  <Molecule ChEMBL ID>
CHEMBL178630

>  <Smiles>
CC(C)Oc1ccc(OCCCOc2ccc3c(c2)O[C@@](C)(C(=O)O)CC3)c(Cl)c1

>  <IC50_nM>
15000

>  <Assay Description>
In vitro binding affinity against human PPARgamma

$$$$
CHEMBL192638
Actelion Java MolfileCreator 2.0

  0  0  0  0  0  0              0 V3000
M  V30 BEGIN CTAB
M  V30 COUNTS 32 34 0 0 0
M  V30 BEGIN ATOM
M  V30 1 Cl 6.0621 1.0 0.0 0
M  V30 2 C 6.0621 0.0 0.0 0
M  V30 3 C 5.1961 -0.5 0.0 0
M  V30 4 C 6.9282 -0.4999 0.0 0
M  V30 5 O 4.3301 0.0 0.0 0
M  V30 6 C 5.1961 -1.4999 0.0 0
M  V30 7 C 6.9282 -1.4999 0.0 0
M  V30 8 C 3.4641 -0.5 0.0 0
M  V30 9 C 6.0621 -1.9999 0.0 0
M  V30 10 O 7.7942 -1.9999 0.0 0
M  V30 11 C 2.598 0.0 0.0 0
M  V30 12 C 7.7942 -2.9999 0.0 0
M  V30 13 C 1.732 -0.5 0.0 0
M  V30 14 C 8.6602 -3.4999 0.0 0
M  V30 15 O 0.866 0.0 0.0 0
M  V30 16 F 9.1602 -2.6339 0.0 0
M  V30 17 F 9.5262 -3.9999 0.0 0
M  V30 18 F 8.1602 -4.366 0.0 0
M  V30 19 C 0.0 -0.5 0.0 0
M  V30 20 C 0.0 -1.4999 0.0 0
M  V30 21 C -0.866 0.0 0.0 0
M  V30 22 C -0.866 -1.9999 0.0 0
M  V30 23 C -1.732 -0.4999 0.0 0
M  V30 24 C -1.732 -1.4999 0.0 0
M  V30 25 C -1.0739 -2.9781 0.0 0
M  V30 26 O -2.4751 -2.1691 0.0 0
M  V30 27 C -2.0684 -3.0826 0.0 0 CFG=2
M  V30 28 C -3.067 -3.0303 0.0 0
M  V30 29 C -2.5684 -3.9487 0.0 0
M  V30 30 O -3.6117 -3.869 0.0 0
M  V30 31 O -3.521 -2.1393 0.0 0
M  V30 32 C -2.0684 -4.8147 0.0 0
M  V30 END ATOM
M  V30 BEGIN BOND
M  V30 1 1 1 2
M  V30 2 2 2 3
M  V30 3 1 2 4
M  V30 4 1 3 5
M  V30 5 1 3 6
M  V30 6 2 4 7
M  V30 7 1 5 8
M  V30 8 2 6 9
M  V30 9 1 7 10
M  V30 10 1 8 11
M  V30 11 1 10 12
M  V30 12 1 11 13
M  V30 13 1 12 14
M  V30 14 1 13 15
M  V30 15 1 14 16
M  V30 16 1 14 17
M  V30 17 1 14 18
M  V30 18 1 15 19
M  V30 19 2 19 20
M  V30 20 1 19 21
M  V30 21 1 20 22
M  V30 22 2 21 23
M  V30 23 2 22 24
M  V30 24 1 22 25
M  V30 25 1 24 26
M  V30 26 1 25 27
M  V30 27 1 27 28
M  V30 28 1 27 29 CFG=3
M  V30 29 2 28 30
M  V30 30 1 28 31
M  V30 31 1 29 32
M  V30 32 1 7 9
M  V30 33 1 23 24
M  V30 34 1 26 27
M  V30 END BOND
M  V30 BEGIN COLLECTION
M  V30 MDLV30/STERAC1 ATOMS=(1 27)
M  V30 END COLLECTION
M  V30 END CTAB
M  END
>  <Molecule ChEMBL ID>
CHEMBL192638

>  <Smiles>
CCC1(C(=O)O)Cc2cc(OCCCOc3ccc(OCC(F)(F)F)cc3Cl)ccc2O1

>  <IC50_nM>
15000

>  <Assay Description>
In vitro binding affinity for PPAR-gamma

$$$$
CHEMBL192609
Actelion Java MolfileCreator 2.0

  0  0  0  0  0  0              0 V3000
M  V30 BEGIN CTAB
M  V30 COUNTS 33 35 0 0 0
M  V30 BEGIN ATOM
M  V30 1 Cl 6.0621 1.0 0.0 0
M  V30 2 C 6.0621 0.0 0.0 0
M  V30 3 C 5.1961 -0.5 0.0 0
M  V30 4 C 6.9282 -0.4999 0.0 0
M  V30 5 O 4.3301 0.0 0.0 0
M  V30 6 C 5.1961 -1.4999 0.0 0
M  V30 7 C 6.9282 -1.4999 0.0 0
M  V30 8 C 3.4641 -0.5 0.0 0
M  V30 9 C 6.0621 -1.9999 0.0 0
M  V30 10 C 7.7942 -1.9999 0.0 0
M  V30 11 C 2.598 0.0 0.0 0
M  V30 12 C 8.6602 -1.4999 0.0 0
M  V30 13 C 1.732 -0.5 0.0 0
M  V30 14 F 8.1602 -0.6339 0.0 0
M  V30 15 F 9.5262 -0.9999 0.0 0
M  V30 16 F 9.1602 -2.366 0.0 0
M  V30 17 O 0.866 0.0 0.0 0
M  V30 18 C 0.0 -0.5 0.0 0
M  V30 19 C 0.0 -1.4999 0.0 0
M  V30 20 C -0.866 0.0 0.0 0
M  V30 21 C -0.866 -1.9999 0.0 0
M  V30 22 C -1.732 -0.4999 0.0 0
M  V30 23 C -1.732 -1.4999 0.0 0
M  V30 24 C -1.0739 -2.9781 0.0 0
M  V30 25 O -2.4751 -2.1691 0.0 0
M  V30 26 C -2.0684 -3.0826 0.0 0 CFG=1
M  V30 27 C -2.5684 -3.9487 0.0 0
M  V30 28 C -3.067 -3.0303 0.0 0
M  V30 29 O -2.0684 -4.8147 0.0 0
M  V30 30 O -3.59 -3.9448 0.0 0
M  V30 31 F -3.1202 -4.2377 0.0 0
M  V30 32 F -4.0657 -2.978 0.0 0
M  V30 33 F -3.0147 -2.0317 0.0 0
M  V30 END ATOM
M  V30 BEGIN BOND
M  V30 1 1 1 2
M  V30 2 2 2 3
M  V30 3 1 2 4
M  V30 4 1 3 5
M  V30 5 1 3 6
M  V30 6 2 4 7
M  V30 7 1 5 8
M  V30 8 2 6 9
M  V30 9 1 7 10
M  V30 10 1 8 11
M  V30 11 1 10 12
M  V30 12 1 11 13
M  V30 13 1 12 14
M  V30 14 1 12 15
M  V30 15 1 12 16
M  V30 16 1 13 17
M  V30 17 1 17 18
M  V30 18 2 18 19
M  V30 19 1 18 20
M  V30 20 1 19 21
M  V30 21 2 20 22
M  V30 22 2 21 23
M  V30 23 1 21 24
M  V30 24 1 23 25
M  V30 25 1 24 26
M  V30 26 1 26 27 CFG=3
M  V30 27 1 26 28
M  V30 28 2 27 29
M  V30 29 1 27 30
M  V30 30 1 28 31
M  V30 31 1 28 32
M  V30 32 1 28 33
M  V30 33 1 7 9
M  V30 34 1 22 23
M  V30 35 1 25 26
M  V30 END BOND
M  V30 BEGIN COLLECTION
M  V30 MDLV30/STERAC1 ATOMS=(1 26)
M  V30 END COLLECTION
M  V30 END CTAB
M  END
>  <Molecule ChEMBL ID>
CHEMBL192609

>  <Smiles>
O=C(O)C1(C(F)(F)F)Cc2cc(OCCCOc3ccc(CC(F)(F)F)cc3Cl)ccc2O1

>  <IC50_nM>
15000

>  <Assay Description>
In vitro binding affinity for PPAR-gamma

$$$$
CHEMBL189844
Actelion Java MolfileCreator 2.0

  0  0  0  0  0  0              0 V3000
M  V30 BEGIN CTAB
M  V30 COUNTS 30 32 0 0 0
M  V30 BEGIN ATOM
M  V30 1 Cl 9.0932 1.5 0.0 0
M  V30 2 C 9.0932 0.0 0.0 0
M  V30 3 C 7.7942 -0.75 0.0 0
M  V30 4 C 10.3923 -0.7499 0.0 0
M  V30 5 O 6.4951 0.0 0.0 0
M  V30 6 C 7.7942 -2.25 0.0 0
M  V30 7 C 10.3923 -2.2499 0.0 0
M  V30 8 C 5.1961 -0.75 0.0 0
M  V30 9 C 9.0932 -2.9999 0.0 0
M  V30 10 C 11.6913 -2.9999 0.0 0
M  V30 11 C 3.8971 0.0 0.0 0
M  V30 12 F 12.4413 -1.7009 0.0 0
M  V30 13 F 12.9903 -3.7499 0.0 0
M  V30 14 F 10.9413 -4.299 0.0 0
M  V30 15 C 2.598 -0.75 0.0 0
M  V30 16 O 1.299 0.0 0.0 0
M  V30 17 C 0.0 -0.75 0.0 0
M  V30 18 C 0.0 -2.2499 0.0 0
M  V30 19 C -1.299 0.0 0.0 0
M  V30 20 C -1.299 -2.9999 0.0 0
M  V30 21 C -2.598 -0.7499 0.0 0
M  V30 22 C -2.598 -2.2499 0.0 0
M  V30 23 C -1.6109 -4.4672 0.0 0
M  V30 24 O -3.7127 -3.2536 0.0 0
M  V30 25 C -3.1026 -4.624 0.0 0 CFG=2
M  V30 26 C -4.6006 -4.5455 0.0 0
M  V30 27 C -3.8526 -5.923 0.0 0
M  V30 28 O -5.4175 -5.8035 0.0 0
M  V30 29 O -5.2816 -3.209 0.0 0
M  V30 30 C -3.1026 -7.222 0.0 0
M  V30 END ATOM
M  V30 BEGIN BOND
M  V30 1 1 1 2
M  V30 2 2 2 3
M  V30 3 1 2 4
M  V30 4 1 3 5
M  V30 5 1 3 6
M  V30 6 2 4 7
M  V30 7 1 5 8
M  V30 8 2 6 9
M  V30 9 1 7 10
M  V30 10 1 8 11
M  V30 11 1 10 12
M  V30 12 1 10 13
M  V30 13 1 10 14
M  V30 14 1 11 15
M  V30 15 1 15 16
M  V30 16 1 16 17
M  V30 17 2 17 18
M  V30 18 1 17 19
M  V30 19 1 18 20
M  V30 20 2 19 21
M  V30 21 2 20 22
M  V30 22 1 20 23
M  V30 23 1 22 24
M  V30 24 1 23 25
M  V30 25 1 25 26
M  V30 26 1 25 27 CFG=3
M  V30 27 2 26 28
M  V30 28 1 26 29
M  V30 29 1 27 30
M  V30 30 1 7 9
M  V30 31 1 21 22
M  V30 32 1 24 25
M  V30 END BOND
M  V30 BEGIN COLLECTION
M  V30 MDLV30/STERAC1 ATOMS=(1 25)
M  V30 END COLLECTION
M  V30 END CTAB
M  END
>  <Molecule ChEMBL ID>
CHEMBL189844

>  <Smiles>
CCC1(C(=O)O)Cc2cc(OCCCOc3ccc(C(F)(F)F)cc3Cl)ccc2O1

>  <IC50_nM>
15000

>  <Assay Description>
In vitro binding affinity for PPAR-gamma

$$$$
CHEMBL257761
Actelion Java MolfileCreator 2.0

  0  0  0  0  0  0              0 V3000
M  V30 BEGIN CTAB
M  V30 COUNTS 40 42 0 0 0
M  V30 BEGIN ATOM
M  V30 1 O 15.5884 -0.75 0.0 0
M  V30 2 C 14.2894 0.0 0.0 0
M  V30 3 O 12.9903 -0.75 0.0 0
M  V30 4 N 14.2894 1.4999 0.0 0
M  V30 5 C 12.9903 -2.25 0.0 0
M  V30 6 C 12.9903 2.2499 0.0 0
M  V30 7 C 15.5884 2.2499 0.0 0
M  V30 8 C 14.2894 -3.0 0.0 0
M  V30 9 C 11.6913 -3.0 0.0 0
M  V30 10 C 11.6913 1.4999 0.0 0
M  V30 11 C 15.5884 3.7499 0.0 0
M  V30 12 C 14.2894 -4.5 0.0 0
M  V30 13 C 11.6913 -4.5 0.0 0
M  V30 14 C 10.3923 2.2499 0.0 0
M  V30 15 C 11.6913 0.0 0.0 0
M  V30 16 O 14.2894 4.4999 0.0 0
M  V30 17 O 16.8874 4.4999 0.0 0
M  V30 18 C 12.9903 -5.25 0.0 0
M  V30 19 C 9.0932 1.5 0.0 0
M  V30 20 C 10.3923 -0.75 0.0 0
M  V30 21 O 12.9903 -6.75 0.0 0
M  V30 22 C 9.0932 0.0 0.0 0
M  V30 23 C 11.6913 -7.5 0.0 0
M  V30 24 O 7.7942 -0.75 0.0 0
M  V30 25 C 6.4951 0.0 0.0 0
M  V30 26 C 5.1961 -0.75 0.0 0
M  V30 27 C 3.8971 0.0 0.0 0
M  V30 28 O 3.8971 1.5 0.0 0
M  V30 29 N 2.598 -0.75 0.0 0
M  V30 30 C 2.598 -2.25 0.0 0
M  V30 31 C 1.299 0.0 0.0 0
M  V30 32 O 1.299 -3.0 0.0 0
M  V30 33 C 3.8971 -3.0 0.0 0
M  V30 34 O 1.299 1.5 0.0 0
M  V30 35 C 0.0 -0.75 0.0 0
M  V30 36 C 3.8971 -4.5 0.0 0
M  V30 37 C 5.1961 -2.25 0.0 0
M  V30 38 C 5.1961 -5.25 0.0 0
M  V30 39 C 6.4951 -3.0 0.0 0
M  V30 40 C 6.4951 -4.5 0.0 0
M  V30 END ATOM
M  V30 BEGIN BOND
M  V30 1 2 1 2
M  V30 2 1 2 3
M  V30 3 1 2 4
M  V30 4 1 3 5
M  V30 5 1 4 6
M  V30 6 1 4 7
M  V30 7 2 5 8
M  V30 8 1 5 9
M  V30 9 1 6 10
M  V30 10 1 7 11
M  V30 11 1 8 12
M  V30 12 2 9 13
M  V30 13 2 10 14
M  V30 14 1 10 15
M  V30 15 2 11 16
M  V30 16 1 11 17
M  V30 17 2 12 18
M  V30 18 1 14 19
M  V30 19 2 15 20
M  V30 20 1 18 21
M  V30 21 2 19 22
M  V30 22 1 21 23
M  V30 23 1 22 24
M  V30 24 1 24 25
M  V30 25 1 25 26
M  V30 26 1 26 27
M  V30 27 2 27 28
M  V30 28 1 27 29
M  V30 29 1 29 30
M  V30 30 1 29 31
M  V30 31 2 30 32
M  V30 32 1 30 33
M  V30 33 2 31 34
M  V30 34 1 31 35
M  V30 35 2 33 36
M  V30 36 1 33 37
M  V30 37 1 36 38
M  V30 38 2 37 39
M  V30 39 2 38 40
M  V30 40 1 13 18
M  V30 41 1 20 22
M  V30 42 1 39 40
M  V30 END BOND
M  V30 END CTAB
M  END
>  <Molecule ChEMBL ID>
CHEMBL257761

>  <Smiles>
COc1ccc(OC(=O)N(CC(=O)O)Cc2ccc(OCCC(=O)N(C(C)=O)C(=O)c3ccccc3)cc2)cc1

>  <IC50_nM>
15000

>  <Assay Description>
Binding affinity at PPAR gamma receptor

$$$$
CHEMBL4075210
Actelion Java MolfileCreator 2.0

  0  0  0  0  0  0              0 V3000
M  V30 BEGIN CTAB
M  V30 COUNTS 26 28 0 0 0
M  V30 BEGIN ATOM
M  V30 1 S 10.4778 -5.3816 0.0 0
M  V30 2 C 10.9413 -6.8082 0.0 0
M  V30 3 C 11.6913 -4.5 0.0 0
M  V30 4 O 10.0596 -8.0217 0.0 0
M  V30 5 N 12.4413 -6.8082 0.0 0
M  V30 6 C 12.9048 -5.3816 0.0 0
M  V30 7 C 11.6913 -3.0 0.0 0
M  V30 8 O 14.3314 -4.9181 0.0 0
M  V30 9 C 10.3923 -2.25 0.0 0
M  V30 10 C 10.3923 -0.75 0.0 0
M  V30 11 C 9.0932 -3.0 0.0 0
M  V30 12 C 9.0932 0.0 0.0 0
M  V30 13 C 7.7942 -2.25 0.0 0
M  V30 14 C 7.7942 -0.75 0.0 0
M  V30 15 O 6.4951 0.0 0.0 0
M  V30 16 C 5.1961 -0.75 0.0 0
M  V30 17 C 3.8971 0.0 0.0 0
M  V30 18 N 2.598 -0.75 0.0 0
M  V30 19 C 2.598 -2.25 0.0 0
M  V30 20 C 1.299 0.0 0.0 0
M  V30 21 N 1.299 -2.9999 0.0 0
M  V30 22 C 3.8971 -3.0 0.0 0
M  V30 23 C 0.0 -0.75 0.0 0
M  V30 24 C 1.299 -4.4999 0.0 0
M  V30 25 C 3.8971 -4.5 0.0 0
M  V30 26 C 2.598 -5.25 0.0 0
M  V30 END ATOM
M  V30 BEGIN BOND
M  V30 1 1 1 2
M  V30 2 1 1 3
M  V30 3 2 2 4
M  V30 4 1 2 5
M  V30 5 1 3 6
M  V30 6 2 3 7
M  V30 7 2 6 8
M  V30 8 1 7 9
M  V30 9 2 9 10
M  V30 10 1 9 11
M  V30 11 1 10 12
M  V30 12 2 11 13
M  V30 13 2 12 14
M  V30 14 1 14 15
M  V30 15 1 15 16
M  V30 16 1 16 17
M  V30 17 1 17 18
M  V30 18 1 18 19
M  V30 19 1 18 20
M  V30 20 2 19 21
M  V30 21 1 19 22
M  V30 22 1 20 23
M  V30 23 1 21 24
M  V30 24 2 22 25
M  V30 25 2 24 26
M  V30 26 1 5 6
M  V30 27 1 13 14
M  V30 28 1 25 26
M  V30 END BOND
M  V30 END CTAB
M  END
>  <Molecule ChEMBL ID>
CHEMBL4075210

>  <Smiles>
CCN(CCOc1ccc(/C=C2\SC(=O)NC2=O)cc1)c1ccccn1

>  <IC50_nM>
15000

>  <Assay Description>
Transrepression activity at human PPARgamma expressed in HEK293 cells assessed as inhibition of TNFalpha induced NF-kappaB promoter activity pretreated for 4 hrs followed by TNFalpha stimulation after 3 hrs by luciferase reporter gene assay

$$$$
CHEMBL190976
Actelion Java MolfileCreator 2.0

  0  0  0  0  0  0              0 V3000
M  V30 BEGIN CTAB
M  V30 COUNTS 32 34 0 0 0
M  V30 BEGIN ATOM
M  V30 1 Cl 6.0621 1.0 0.0 0
M  V30 2 C 6.0621 0.0 0.0 0
M  V30 3 C 5.1961 -0.5 0.0 0
M  V30 4 C 6.9282 -0.4999 0.0 0
M  V30 5 O 4.3301 0.0 0.0 0
M  V30 6 C 5.1961 -1.4999 0.0 0
M  V30 7 C 6.9282 -1.4999 0.0 0
M  V30 8 C 3.4641 -0.5 0.0 0
M  V30 9 C 6.0621 -1.9999 0.0 0
M  V30 10 C 7.7942 -1.9999 0.0 0
M  V30 11 C 2.598 0.0 0.0 0
M  V30 12 C 7.7942 -2.9999 0.0 0
M  V30 13 C 1.732 -0.5 0.0 0
M  V30 14 C 8.6602 -3.4999 0.0 0
M  V30 15 O 0.866 0.0 0.0 0
M  V30 16 F 9.1602 -2.6339 0.0 0
M  V30 17 F 9.5262 -3.9999 0.0 0
M  V30 18 F 8.1602 -4.366 0.0 0
M  V30 19 C 0.0 -0.5 0.0 0
M  V30 20 C 0.0 -1.4999 0.0 0
M  V30 21 C -0.866 0.0 0.0 0
M  V30 22 C -0.866 -1.9999 0.0 0
M  V30 23 C -1.732 -0.4999 0.0 0
M  V30 24 C -1.732 -1.4999 0.0 0
M  V30 25 C -1.0739 -2.9781 0.0 0
M  V30 26 O -2.4751 -2.1691 0.0 0
M  V30 27 C -2.0684 -3.0826 0.0 0 CFG=2
M  V30 28 C -3.067 -3.0303 0.0 0
M  V30 29 C -2.5684 -3.9487 0.0 0
M  V30 30 O -3.6117 -3.869 0.0 0
M  V30 31 O -3.521 -2.1393 0.0 0
M  V30 32 C -2.0684 -4.8147 0.0 0
M  V30 END ATOM
M  V30 BEGIN BOND
M  V30 1 1 1 2
M  V30 2 2 2 3
M  V30 3 1 2 4
M  V30 4 1 3 5
M  V30 5 1 3 6
M  V30 6 2 4 7
M  V30 7 1 5 8
M  V30 8 2 6 9
M  V30 9 1 7 10
M  V30 10 1 8 11
M  V30 11 1 10 12
M  V30 12 1 11 13
M  V30 13 1 12 14
M  V30 14 1 13 15
M  V30 15 1 14 16
M  V30 16 1 14 17
M  V30 17 1 14 18
M  V30 18 1 15 19
M  V30 19 2 19 20
M  V30 20 1 19 21
M  V30 21 1 20 22
M  V30 22 2 21 23
M  V30 23 2 22 24
M  V30 24 1 22 25
M  V30 25 1 24 26
M  V30 26 1 25 27
M  V30 27 1 27 28
M  V30 28 1 27 29 CFG=3
M  V30 29 2 28 30
M  V30 30 1 28 31
M  V30 31 1 29 32
M  V30 32 1 7 9
M  V30 33 1 23 24
M  V30 34 1 26 27
M  V30 END BOND
M  V30 BEGIN COLLECTION
M  V30 MDLV30/STEABS ATOMS=(1 27)
M  V30 END COLLECTION
M  V30 END CTAB
M  END
>  <Molecule ChEMBL ID>
CHEMBL190976

>  <Smiles>
CC[C@@]1(C(=O)O)Cc2cc(OCCCOc3ccc(CCC(F)(F)F)cc3Cl)ccc2O1

>  <IC50_nM>
15000

>  <Assay Description>
In vitro binding affinity for PPAR-gamma

$$$$
CHEMBL444373
Actelion Java MolfileCreator 2.0

  0  0  0  0  0  0              0 V3000
M  V30 BEGIN CTAB
M  V30 COUNTS 24 25 0 0 0
M  V30 BEGIN ATOM
M  V30 1 O 3.4641 -1.5 0.0 0
M  V30 2 C 3.4641 -0.5 0.0 0
M  V30 3 O 4.3301 0.0 0.0 0
M  V30 4 N 2.598 0.0 0.0 0
M  V30 5 C 5.1961 -0.5 0.0 0
M  V30 6 C 2.598 1.0 0.0 0
M  V30 7 C 1.732 -0.5 0.0 0
M  V30 8 C 5.1961 -1.5 0.0 0
M  V30 9 C 6.0621 0.0 0.0 0
M  V30 10 C 1.732 1.5 0.0 0
M  V30 11 C 1.732 -1.5 0.0 0
M  V30 12 C 6.0621 -2.0 0.0 0
M  V30 13 C 6.9282 -0.5 0.0 0
M  V30 14 C 1.732 2.5 0.0 0
M  V30 15 C 0.866 1.0 0.0 0
M  V30 16 O 2.598 -2.0 0.0 0
M  V30 17 O 0.866 -2.0 0.0 0
M  V30 18 C 6.9282 -1.5 0.0 0
M  V30 19 C 0.866 3.0 0.0 0
M  V30 20 C 0.0 1.5 0.0 0
M  V30 21 O 7.7942 -2.0 0.0 0
M  V30 22 C 0.0 2.5 0.0 0
M  V30 23 C 8.6602 -1.5 0.0 0
M  V30 24 O -0.866 3.0 0.0 0
M  V30 END ATOM
M  V30 BEGIN BOND
M  V30 1 2 1 2
M  V30 2 1 2 3
M  V30 3 1 2 4
M  V30 4 1 3 5
M  V30 5 1 4 6
M  V30 6 1 4 7
M  V30 7 2 5 8
M  V30 8 1 5 9
M  V30 9 1 6 10
M  V30 10 1 7 11
M  V30 11 1 8 12
M  V30 12 2 9 13
M  V30 13 2 10 14
M  V30 14 1 10 15
M  V30 15 2 11 16
M  V30 16 1 11 17
M  V30 17 2 12 18
M  V30 18 1 14 19
M  V30 19 2 15 20
M  V30 20 1 18 21
M  V30 21 2 19 22
M  V30 22 1 21 23
M  V30 23 1 22 24
M  V30 24 1 13 18
M  V30 25 1 20 22
M  V30 END BOND
M  V30 END CTAB
M  END
>  <Molecule ChEMBL ID>
CHEMBL444373

>  <Smiles>
COc1ccc(OC(=O)N(CC(=O)O)Cc2ccc(O)cc2)cc1

>  <IC50_nM>
15000

>  <Assay Description>
Binding affinity at PPAR gamma receptor

$$$$
CHEMBL190352
Actelion Java MolfileCreator 2.0

  0  0  0  0  0  0              0 V3000
M  V30 BEGIN CTAB
M  V30 COUNTS 27 28 0 0 0
M  V30 BEGIN ATOM
M  V30 1 F 11.987 3.659 0.0 0
M  V30 2 C 11.6752 2.1918 0.0 0
M  V30 3 F 13.1424 1.8799 0.0 0
M  V30 4 F 11.3633 0.7246 0.0 0
M  V30 5 C 10.208 2.5036 0.0 0
M  V30 6 N 9.5978 3.874 0.0 0
M  V30 7 C 9.0932 1.5 0.0 0
M  V30 8 O 8.1061 3.7172 0.0 0
M  V30 9 C 7.7942 2.25 0.0 0
M  V30 10 C 9.0932 0.0 0.0 0
M  V30 11 C 6.4952 1.5 0.0 0
M  V30 12 C 7.7942 -0.75 0.0 0
M  V30 13 C 6.4952 0.0 0.0 0
M  V30 14 C 5.1961 2.25 0.0 0
M  V30 15 C 7.7942 -2.25 0.0 0
M  V30 16 O 5.1961 -0.75 0.0 0
M  V30 17 C 5.1961 3.75 0.0 0
M  V30 18 C 6.4952 -3.0 0.0 0
M  V30 19 C 3.8971 0.0 0.0 0
M  V30 20 C 3.8971 4.5 0.0 0
M  V30 21 C 6.4952 -4.5 0.0 0
M  V30 22 C 2.598 -0.75 0.0 0
M  V30 23 C 1.299 0.0 0.0 0
M  V30 24 C 1.848 -2.049 0.0 0
M  V30 25 C 3.348 -2.049 0.0 0
M  V30 26 O 1.299 1.5 0.0 0
M  V30 27 O 0.0 -0.75 0.0 0
M  V30 END ATOM
M  V30 BEGIN BOND
M  V30 1 1 1 2
M  V30 2 1 2 3
M  V30 3 1 2 4
M  V30 4 1 2 5
M  V30 5 2 5 6
M  V30 6 1 5 7
M  V30 7 1 6 8
M  V30 8 2 7 9
M  V30 9 1 7 10
M  V30 10 1 9 11
M  V30 11 2 10 12
M  V30 12 2 11 13
M  V30 13 1 11 14
M  V30 14 1 12 15
M  V30 15 1 13 16
M  V30 16 1 14 17
M  V30 17 1 15 18
M  V30 18 1 16 19
M  V30 19 1 17 20
M  V30 20 1 18 21
M  V30 21 1 19 22
M  V30 22 1 22 23
M  V30 23 1 22 24
M  V30 24 1 22 25
M  V30 25 2 23 26
M  V30 26 1 23 27
M  V30 27 1 8 9
M  V30 28 1 12 13
M  V30 END BOND
M  V30 END CTAB
M  END
>  <Molecule ChEMBL ID>
CHEMBL190352

>  <Smiles>
CCCc1cc2c(C(F)(F)F)noc2c(CCC)c1OCC(C)(C)C(=O)O

>  <IC50_nM>
15000

>  <Assay Description>
Inhibition of human Peroxisome proliferator activated receptor gamma binding

$$$$
CHEMBL360919
Actelion Java MolfileCreator 2.0

  0  0  0  0  0  0              0 V3000
M  V30 BEGIN CTAB
M  V30 COUNTS 28 30 0 0 0
M  V30 BEGIN ATOM
M  V30 1 Cl 6.0621 1.0 0.0 0
M  V30 2 C 6.0621 0.0 0.0 0
M  V30 3 C 5.1961 -0.5 0.0 0
M  V30 4 C 6.9282 -0.4999 0.0 0
M  V30 5 O 4.3301 0.0 0.0 0
M  V30 6 C 5.1961 -1.4999 0.0 0
M  V30 7 C 6.9282 -1.4999 0.0 0
M  V30 8 C 3.4641 -0.5 0.0 0
M  V30 9 C 6.0621 -1.9999 0.0 0
M  V30 10 O 7.7942 -1.9999 0.0 0
M  V30 11 C 2.598 0.0 0.0 0
M  V30 12 C 8.6602 -1.4999 0.0 0
M  V30 13 C 1.732 -0.5 0.0 0
M  V30 14 O 0.866 0.0 0.0 0
M  V30 15 C 0.0 -0.5 0.0 0
M  V30 16 C -0.866 0.0 0.0 0
M  V30 17 C 0.0 -1.4999 0.0 0
M  V30 18 C -1.732 -0.4999 0.0 0
M  V30 19 C -0.866 -1.9999 0.0 0
M  V30 20 O -2.598 0.0 0.0 0
M  V30 21 C -1.732 -1.4999 0.0 0
M  V30 22 C -3.4641 -0.4999 0.0 0 CFG=1
M  V30 23 C -2.598 -1.9999 0.0 0
M  V30 24 C -4.3301 0.0 0.0 0
M  V30 25 C -3.4641 -1.4999 0.0 0
M  V30 26 C -4.3301 -0.9999 0.0 0
M  V30 27 O -5.1961 -0.4999 0.0 0
M  V30 28 O -4.3301 1.0 0.0 0
M  V30 END ATOM
M  V30 BEGIN BOND
M  V30 1 1 1 2
M  V30 2 2 2 3
M  V30 3 1 2 4
M  V30 4 1 3 5
M  V30 5 1 3 6
M  V30 6 2 4 7
M  V30 7 1 5 8
M  V30 8 2 6 9
M  V30 9 1 7 10
M  V30 10 1 8 11
M  V30 11 1 10 12
M  V30 12 1 11 13
M  V30 13 1 13 14
M  V30 14 1 14 15
M  V30 15 2 15 16
M  V30 16 1 15 17
M  V30 17 1 16 18
M  V30 18 2 17 19
M  V30 19 1 18 20
M  V30 20 2 18 21
M  V30 21 1 20 22
M  V30 22 1 21 23
M  V30 23 1 22 24
M  V30 24 1 22 25
M  V30 25 1 22 26 CFG=1
M  V30 26 2 24 27
M  V30 27 1 24 28
M  V30 28 1 7 9
M  V30 29 1 19 21
M  V30 30 1 23 25
M  V30 END BOND
M  V30 BEGIN COLLECTION
M  V30 MDLV30/STEABS ATOMS=(1 22)
M  V30 END COLLECTION
M  V30 END CTAB
M  END
>  <Molecule ChEMBL ID>
CHEMBL360919

>  <Smiles>
COc1ccc(OCCCOc2ccc3c(c2)O[C@@](C)(C(=O)O)CC3)c(Cl)c1

>  <IC50_nM>
15000

>  <Assay Description>
In vitro binding affinity against human PPARgamma

$$$$
CHEMBL179657
Actelion Java MolfileCreator 2.0

  0  0  0  0  0  0              0 V3000
M  V30 BEGIN CTAB
M  V30 COUNTS 33 36 0 0 0
M  V30 BEGIN ATOM
M  V30 1 Cl 6.0621 1.0 0.0 0
M  V30 2 C 6.0621 0.0 0.0 0
M  V30 3 C 5.1961 -0.5 0.0 0
M  V30 4 C 6.9282 -0.4999 0.0 0
M  V30 5 O 4.3301 0.0 0.0 0
M  V30 6 C 5.1961 -1.4999 0.0 0
M  V30 7 C 6.9282 -1.4999 0.0 0
M  V30 8 C 3.4641 -0.5 0.0 0
M  V30 9 C 6.0621 -1.9999 0.0 0
M  V30 10 C 7.7942 -1.9999 0.0 0
M  V30 11 C 2.598 0.0 0.0 0
M  V30 12 C 7.7942 -2.9999 0.0 0
M  V30 13 C 8.6602 -1.4999 0.0 0
M  V30 14 C 1.732 -0.5 0.0 0
M  V30 15 C 8.6602 -3.4999 0.0 0
M  V30 16 C 9.5262 -1.9999 0.0 0
M  V30 17 O 0.866 0.0 0.0 0
M  V30 18 O 9.5262 -2.9999 0.0 0
M  V30 19 C 0.0 -0.5 0.0 0
M  V30 20 C -0.866 0.0 0.0 0
M  V30 21 C 0.0 -1.4999 0.0 0
M  V30 22 C -1.732 -0.4999 0.0 0
M  V30 23 C -0.866 -1.9999 0.0 0
M  V30 24 O -2.598 0.0 0.0 0
M  V30 25 C -1.732 -1.4999 0.0 0
M  V30 26 C -3.4641 -0.4999 0.0 0 CFG=1
M  V30 27 C -2.598 -1.9999 0.0 0
M  V30 28 C -3.4641 0.5 0.0 0
M  V30 29 C -3.4641 -1.4999 0.0 0
M  V30 30 C -4.3301 0.0 0.0 0
M  V30 31 O -4.3301 1.0 0.0 0
M  V30 32 O -2.598 1.0 0.0 0
M  V30 33 C -5.1961 -0.4999 0.0 0
M  V30 END ATOM
M  V30 BEGIN BOND
M  V30 1 1 1 2
M  V30 2 2 2 3
M  V30 3 1 2 4
M  V30 4 1 3 5
M  V30 5 1 3 6
M  V30 6 2 4 7
M  V30 7 1 5 8
M  V30 8 2 6 9
M  V30 9 1 7 10
M  V30 10 1 8 11
M  V30 11 1 10 12
M  V30 12 1 10 13
M  V30 13 1 11 14
M  V30 14 1 12 15
M  V30 15 1 13 16
M  V30 16 1 14 17
M  V30 17 1 15 18
M  V30 18 1 17 19
M  V30 19 2 19 20
M  V30 20 1 19 21
M  V30 21 1 20 22
M  V30 22 2 21 23
M  V30 23 1 22 24
M  V30 24 2 22 25
M  V30 25 1 24 26
M  V30 26 1 25 27
M  V30 27 1 26 28 CFG=3
M  V30 28 1 26 29
M  V30 29 1 26 30
M  V30 30 2 28 31
M  V30 31 1 28 32
M  V30 32 1 30 33
M  V30 33 1 7 9
M  V30 34 1 16 18
M  V30 35 1 23 25
M  V30 36 1 27 29
M  V30 END BOND
M  V30 BEGIN COLLECTION
M  V30 MDLV30/STEABS ATOMS=(1 26)
M  V30 END COLLECTION
M  V30 END CTAB
M  END
>  <Molecule ChEMBL ID>
CHEMBL179657

>  <Smiles>
CC[C@]1(C(=O)O)CCc2ccc(OCCCOc3ccc(C4CCOCC4)cc3Cl)cc2O1

>  <IC50_nM>
15000

>  <Assay Description>
In vitro binding affinity against human PPARgamma

$$$$
CHEMBL426592
Actelion Java MolfileCreator 2.0

  0  0  0  0  0  0              0 V3000
M  V30 BEGIN CTAB
M  V30 COUNTS 30 32 0 0 0
M  V30 BEGIN ATOM
M  V30 1 Cl 6.0621 1.0 0.0 0
M  V30 2 C 6.0621 0.0 0.0 0
M  V30 3 C 5.1961 -0.5 0.0 0
M  V30 4 C 6.9282 -0.4999 0.0 0
M  V30 5 O 4.3301 0.0 0.0 0
M  V30 6 C 5.1961 -1.4999 0.0 0
M  V30 7 C 6.9282 -1.4999 0.0 0
M  V30 8 C 3.4641 -0.5 0.0 0
M  V30 9 C 6.0621 -1.9999 0.0 0
M  V30 10 C 7.7942 -1.9999 0.0 0
M  V30 11 C 2.598 0.0 0.0 0
M  V30 12 C 8.2942 -1.1339 0.0 0
M  V30 13 C 8.6602 -2.4999 0.0 0
M  V30 14 C 7.2942 -2.866 0.0 0
M  V30 15 C 1.732 -0.5 0.0 0
M  V30 16 O 0.866 0.0 0.0 0
M  V30 17 C 0.0 -0.5 0.0 0
M  V30 18 C -0.866 0.0 0.0 0
M  V30 19 C 0.0 -1.4999 0.0 0
M  V30 20 C -1.732 -0.4999 0.0 0
M  V30 21 C -0.866 -1.9999 0.0 0
M  V30 22 O -2.598 0.0 0.0 0
M  V30 23 C -1.732 -1.4999 0.0 0
M  V30 24 C -3.4641 -0.4999 0.0 0 CFG=1
M  V30 25 C -2.598 -1.9999 0.0 0
M  V30 26 C -4.3301 0.0 0.0 0
M  V30 27 C -3.4641 -1.4999 0.0 0
M  V30 28 C -4.3301 -0.9999 0.0 0
M  V30 29 O -5.1961 -0.4999 0.0 0
M  V30 30 O -4.3301 1.0 0.0 0
M  V30 END ATOM
M  V30 BEGIN BOND
M  V30 1 1 1 2
M  V30 2 2 2 3
M  V30 3 1 2 4
M  V30 4 1 3 5
M  V30 5 1 3 6
M  V30 6 2 4 7
M  V30 7 1 5 8
M  V30 8 2 6 9
M  V30 9 1 7 10
M  V30 10 1 8 11
M  V30 11 1 10 12
M  V30 12 1 10 13
M  V30 13 1 10 14
M  V30 14 1 11 15
M  V30 15 1 15 16
M  V30 16 1 16 17
M  V30 17 2 17 18
M  V30 18 1 17 19
M  V30 19 1 18 20
M  V30 20 2 19 21
M  V30 21 1 20 22
M  V30 22 2 20 23
M  V30 23 1 22 24
M  V30 24 1 23 25
M  V30 25 1 24 26
M  V30 26 1 24 27
M  V30 27 1 24 28 CFG=1
M  V30 28 2 26 29
M  V30 29 1 26 30
M  V30 30 1 7 9
M  V30 31 1 21 23
M  V30 32 1 25 27
M  V30 END BOND
M  V30 BEGIN COLLECTION
M  V30 MDLV30/STEABS ATOMS=(1 24)
M  V30 END COLLECTION
M  V30 END CTAB
M  END
>  <Molecule ChEMBL ID>
CHEMBL426592

>  <Smiles>
CC(C)(C)c1ccc(OCCCOc2ccc3c(c2)O[C@@](C)(C(=O)O)CC3)c(Cl)c1

>  <IC50_nM>
15000

>  <Assay Description>
In vitro binding affinity against human PPARgamma

$$$$
CHEMBL369725
Actelion Java MolfileCreator 2.0

  0  0  0  0  0  0              0 V3000
M  V30 BEGIN CTAB
M  V30 COUNTS 31 33 0 0 0
M  V30 BEGIN ATOM
M  V30 1 Cl 9.0932 1.5 0.0 0
M  V30 2 C 9.0932 0.0 0.0 0
M  V30 3 C 7.7942 -0.75 0.0 0
M  V30 4 C 10.3923 -0.75 0.0 0
M  V30 5 O 6.4951 0.0 0.0 0
M  V30 6 C 7.7942 -2.25 0.0 0
M  V30 7 C 10.3923 -2.25 0.0 0
M  V30 8 C 5.1961 -0.75 0.0 0
M  V30 9 C 9.0932 -3.0 0.0 0
M  V30 10 C 11.6913 -3.0 0.0 0
M  V30 11 C 3.8971 0.0 0.0 0
M  V30 12 C 11.6913 -4.5 0.0 0
M  V30 13 C 13.1913 -3.0 0.0 0
M  V30 14 C 12.4413 -1.7009 0.0 0
M  V30 15 C 2.598 -0.75 0.0 0
M  V30 16 C 12.9903 -5.25 0.0 0
M  V30 17 O 1.299 0.0 0.0 0
M  V30 18 C 0.0 -0.75 0.0 0
M  V30 19 C -1.299 0.0 0.0 0
M  V30 20 C 0.0 -2.25 0.0 0
M  V30 21 C -2.598 -0.75 0.0 0
M  V30 22 C -1.299 -3.0 0.0 0
M  V30 23 O -3.8971 0.0 0.0 0
M  V30 24 C -2.598 -2.25 0.0 0
M  V30 25 C -5.1961 -0.75 0.0 0 CFG=1
M  V30 26 C -3.8971 -3.0 0.0 0
M  V30 27 C -6.4951 0.0 0.0 0
M  V30 28 C -5.1961 -2.25 0.0 0
M  V30 29 C -6.4951 -1.5 0.0 0
M  V30 30 O -7.7942 -0.75 0.0 0
M  V30 31 O -6.4951 1.5 0.0 0
M  V30 END ATOM
M  V30 BEGIN BOND
M  V30 1 1 1 2
M  V30 2 2 2 3
M  V30 3 1 2 4
M  V30 4 1 3 5
M  V30 5 1 3 6
M  V30 6 2 4 7
M  V30 7 1 5 8
M  V30 8 2 6 9
M  V30 9 1 7 10
M  V30 10 1 8 11
M  V30 11 1 10 12
M  V30 12 1 10 13
M  V30 13 1 10 14
M  V30 14 1 11 15
M  V30 15 1 12 16
M  V30 16 1 15 17
M  V30 17 1 17 18
M  V30 18 2 18 19
M  V30 19 1 18 20
M  V30 20 1 19 21
M  V30 21 2 20 22
M  V30 22 1 21 23
M  V30 23 2 21 24
M  V30 24 1 23 25
M  V30 25 1 24 26
M  V30 26 1 25 27
M  V30 27 1 25 28
M  V30 28 1 25 29 CFG=1
M  V30 29 2 27 30
M  V30 30 1 27 31
M  V30 31 1 7 9
M  V30 32 1 22 24
M  V30 33 1 26 28
M  V30 END BOND
M  V30 BEGIN COLLECTION
M  V30 MDLV30/STEABS ATOMS=(1 25)
M  V30 END COLLECTION
M  V30 END CTAB
M  END
>  <Molecule ChEMBL ID>
CHEMBL369725

>  <Smiles>
CCC(C)(C)c1ccc(OCCCOc2ccc3c(c2)O[C@@](C)(C(=O)O)CC3)c(Cl)c1

>  <IC50_nM>
15000

>  <Assay Description>
In vitro binding affinity against human PPARgamma

$$$$
CHEMBL180123
Actelion Java MolfileCreator 2.0

  0  0  0  0  0  0              0 V3000
M  V30 BEGIN CTAB
M  V30 COUNTS 27 29 0 0 0
M  V30 BEGIN ATOM
M  V30 1 Cl 6.0621 1.0 0.0 0
M  V30 2 C 6.0621 0.0 0.0 0
M  V30 3 C 5.1961 -0.5 0.0 0
M  V30 4 C 6.9282 -0.4999 0.0 0
M  V30 5 O 4.3301 0.0 0.0 0
M  V30 6 C 5.1961 -1.4999 0.0 0
M  V30 7 C 6.9282 -1.4999 0.0 0
M  V30 8 C 3.4641 -0.5 0.0 0
M  V30 9 C 6.0621 -1.9999 0.0 0
M  V30 10 F 7.7942 -1.9999 0.0 0
M  V30 11 C 2.598 0.0 0.0 0
M  V30 12 C 1.732 -0.5 0.0 0
M  V30 13 O 0.866 0.0 0.0 0
M  V30 14 C 0.0 -0.5 0.0 0
M  V30 15 C -0.866 0.0 0.0 0
M  V30 16 C 0.0 -1.4999 0.0 0
M  V30 17 C -1.732 -0.4999 0.0 0
M  V30 18 C -0.866 -1.9999 0.0 0
M  V30 19 O -2.598 0.0 0.0 0
M  V30 20 C -1.732 -1.4999 0.0 0
M  V30 21 C -3.4641 -0.4999 0.0 0 CFG=1
M  V30 22 C -2.598 -1.9999 0.0 0
M  V30 23 C -4.3301 0.0 0.0 0
M  V30 24 C -3.4641 -1.4999 0.0 0
M  V30 25 C -4.3301 -0.9999 0.0 0
M  V30 26 O -5.1961 -0.4999 0.0 0
M  V30 27 O -4.3301 1.0 0.0 0
M  V30 END ATOM
M  V30 BEGIN BOND
M  V30 1 1 1 2
M  V30 2 2 2 3
M  V30 3 1 2 4
M  V30 4 1 3 5
M  V30 5 1 3 6
M  V30 6 2 4 7
M  V30 7 1 5 8
M  V30 8 2 6 9
M  V30 9 1 7 10
M  V30 10 1 8 11
M  V30 11 1 11 12
M  V30 12 1 12 13
M  V30 13 1 13 14
M  V30 14 2 14 15
M  V30 15 1 14 16
M  V30 16 1 15 17
M  V30 17 2 16 18
M  V30 18 1 17 19
M  V30 19 2 17 20
M  V30 20 1 19 21
M  V30 21 1 20 22
M  V30 22 1 21 23
M  V30 23 1 21 24
M  V30 24 1 21 25 CFG=1
M  V30 25 2 23 26
M  V30 26 1 23 27
M  V30 27 1 7 9
M  V30 28 1 18 20
M  V30 29 1 22 24
M  V30 END BOND
M  V30 BEGIN COLLECTION
M  V30 MDLV30/STEABS ATOMS=(1 21)
M  V30 END COLLECTION
M  V30 END CTAB
M  END
>  <Molecule ChEMBL ID>
CHEMBL180123

>  <Smiles>
C[C@]1(C(=O)O)CCc2ccc(OCCCOc3ccc(F)cc3Cl)cc2O1

>  <IC50_nM>
15000

>  <Assay Description>
In vitro binding affinity against human PPARgamma

$$$$
CHEMBL192291
Actelion Java MolfileCreator 2.0

  0  0  0  0  0  0              0 V3000
M  V30 BEGIN CTAB
M  V30 COUNTS 31 33 0 0 0
M  V30 BEGIN ATOM
M  V30 1 Cl 6.0621 1.0 0.0 0
M  V30 2 C 6.0621 0.0 0.0 0
M  V30 3 C 5.1961 -0.5 0.0 0
M  V30 4 C 6.9282 -0.4999 0.0 0
M  V30 5 O 4.3301 0.0 0.0 0
M  V30 6 C 5.1961 -1.4999 0.0 0
M  V30 7 C 6.9282 -1.4999 0.0 0
M  V30 8 C 3.4641 -0.5 0.0 0
M  V30 9 C 6.0621 -1.9999 0.0 0
M  V30 10 O 7.7942 -1.9999 0.0 0
M  V30 11 C 2.598 0.0 0.0 0
M  V30 12 C 8.6602 -1.4999 0.0 0
M  V30 13 C 1.732 -0.5 0.0 0
M  V30 14 F 8.1602 -0.6339 0.0 0
M  V30 15 F 9.5262 -0.9999 0.0 0
M  V30 16 F 9.1602 -2.366 0.0 0
M  V30 17 O 0.866 0.0 0.0 0
M  V30 18 C 0.0 -0.5 0.0 0
M  V30 19 C 0.0 -1.4999 0.0 0
M  V30 20 C -0.866 0.0 0.0 0
M  V30 21 C -0.866 -1.9999 0.0 0
M  V30 22 C -1.732 -0.4999 0.0 0
M  V30 23 C -1.732 -1.4999 0.0 0
M  V30 24 C -1.0739 -2.9781 0.0 0
M  V30 25 O -2.4751 -2.1691 0.0 0
M  V30 26 C -2.0684 -3.0826 0.0 0 CFG=1
M  V30 27 C -3.067 -3.0303 0.0 0
M  V30 28 C -2.5684 -3.9487 0.0 0
M  V30 29 O -3.6117 -3.869 0.0 0
M  V30 30 O -3.521 -2.1393 0.0 0
M  V30 31 C -2.0684 -4.8147 0.0 0
M  V30 END ATOM
M  V30 BEGIN BOND
M  V30 1 1 1 2
M  V30 2 2 2 3
M  V30 3 1 2 4
M  V30 4 1 3 5
M  V30 5 1 3 6
M  V30 6 2 4 7
M  V30 7 1 5 8
M  V30 8 2 6 9
M  V30 9 1 7 10
M  V30 10 1 8 11
M  V30 11 1 10 12
M  V30 12 1 11 13
M  V30 13 1 12 14
M  V30 14 1 12 15
M  V30 15 1 12 16
M  V30 16 1 13 17
M  V30 17 1 17 18
M  V30 18 2 18 19
M  V30 19 1 18 20
M  V30 20 1 19 21
M  V30 21 2 20 22
M  V30 22 2 21 23
M  V30 23 1 21 24
M  V30 24 1 23 25
M  V30 25 1 24 26
M  V30 26 1 26 27
M  V30 27 1 26 28 CFG=1
M  V30 28 2 27 29
M  V30 29 1 27 30
M  V30 30 1 28 31
M  V30 31 1 7 9
M  V30 32 1 22 23
M  V30 33 1 25 26
M  V30 END BOND
M  V30 BEGIN COLLECTION
M  V30 MDLV30/STEABS ATOMS=(1 26)
M  V30 END COLLECTION
M  V30 END CTAB
M  END
>  <Molecule ChEMBL ID>
CHEMBL192291

>  <Smiles>
CC[C@]1(C(=O)O)Cc2cc(OCCCOc3ccc(OC(F)(F)F)cc3Cl)ccc2O1

>  <IC50_nM>
15000

>  <Assay Description>
In vitro binding affinity for PPAR-gamma

$$$$
CHEMBL429671
Actelion Java MolfileCreator 2.0

  0  0  0  0  0  0              0 V3000
M  V30 BEGIN CTAB
M  V30 COUNTS 39 42 0 0 0
M  V30 BEGIN ATOM
M  V30 1 O 3.4641 -1.5 0.0 0
M  V30 2 C 3.4641 -0.5 0.0 0
M  V30 3 O 4.3301 0.0 0.0 0
M  V30 4 N 2.598 0.0 0.0 0
M  V30 5 C 5.1961 -0.5 0.0 0
M  V30 6 C 2.598 1.0 0.0 0
M  V30 7 C 1.732 -0.5 0.0 0
M  V30 8 C 5.1961 -1.5 0.0 0
M  V30 9 C 6.0621 0.0 0.0 0
M  V30 10 C 1.732 1.5 0.0 0
M  V30 11 C 1.732 -1.5 0.0 0
M  V30 12 C 6.0621 -2.0 0.0 0
M  V30 13 C 6.9282 -0.5 0.0 0
M  V30 14 C 1.732 2.5 0.0 0
M  V30 15 C 0.866 1.0 0.0 0
M  V30 16 O 2.598 -2.0 0.0 0
M  V30 17 O 0.866 -2.0 0.0 0
M  V30 18 C 6.9282 -1.5 0.0 0
M  V30 19 C 0.866 3.0 0.0 0
M  V30 20 C 0.0 1.5 0.0 0
M  V30 21 O 7.7942 -2.0 0.0 0
M  V30 22 C 0.0 2.5 0.0 0
M  V30 23 C 8.6602 -1.5 0.0 0
M  V30 24 O -0.866 3.0 0.0 0
M  V30 25 C -1.732 2.5 0.0 0
M  V30 26 C -2.598 3.0 0.0 0
M  V30 27 C -3.4641 2.5 0.0 0
M  V30 28 N -4.3776 2.9067 0.0 0
M  V30 29 C -3.5686 1.5054 0.0 0
M  V30 30 C -5.0467 2.1635 0.0 0
M  V30 31 O -4.5467 1.2975 0.0 0
M  V30 32 C -2.8254 0.8363 0.0 0
M  V30 33 C -6.0412 2.2681 0.0 0
M  V30 34 O -1.8744 1.1453 0.0 0
M  V30 35 C -6.448 3.1816 0.0 0
M  V30 36 C -6.629 1.4591 0.0 0
M  V30 37 C -7.4425 3.2861 0.0 0
M  V30 38 C -7.6236 1.5636 0.0 0
M  V30 39 C -8.0303 2.4771 0.0 0
M  V30 END ATOM
M  V30 BEGIN BOND
M  V30 1 2 1 2
M  V30 2 1 2 3
M  V30 3 1 2 4
M  V30 4 1 3 5
M  V30 5 1 4 6
M  V30 6 1 4 7
M  V30 7 2 5 8
M  V30 8 1 5 9
M  V30 9 1 6 10
M  V30 10 1 7 11
M  V30 11 1 8 12
M  V30 12 2 9 13
M  V30 13 2 10 14
M  V30 14 1 10 15
M  V30 15 2 11 16
M  V30 16 1 11 17
M  V30 17 2 12 18
M  V30 18 1 14 19
M  V30 19 2 15 20
M  V30 20 1 18 21
M  V30 21 2 19 22
M  V30 22 1 21 23
M  V30 23 1 22 24
M  V30 24 1 24 25
M  V30 25 1 25 26
M  V30 26 1 26 27
M  V30 27 1 27 28
M  V30 28 2 27 29
M  V30 29 2 28 30
M  V30 30 1 29 31
M  V30 31 1 29 32
M  V30 32 1 30 33
M  V30 33 1 32 34
M  V30 34 2 33 35
M  V30 35 1 33 36
M  V30 36 1 35 37
M  V30 37 2 36 38
M  V30 38 2 37 39
M  V30 39 1 13 18
M  V30 40 1 20 22
M  V30 41 1 30 31
M  V30 42 1 38 39
M  V30 END BOND
M  V30 END CTAB
M  END
>  <Molecule ChEMBL ID>
CHEMBL429671

>  <Smiles>
COc1ccc(OC(=O)N(CC(=O)O)Cc2ccc(OCCc3nc(-c4ccccc4)oc3CO)cc2)cc1

>  <IC50_nM>
15000

>  <Assay Description>
Binding affinity at PPAR gamma receptor

$$$$
CHEMBL3828232
Actelion Java MolfileCreator 2.0

  0  0  0  0  0  0              0 V3000
M  V30 BEGIN CTAB
M  V30 COUNTS 32 34 0 0 0
M  V30 BEGIN ATOM
M  V30 1 Cl 14.4567 -8.0349 0.0 0
M  V30 2 C 13.8466 -6.6646 0.0 0
M  V30 3 C 14.7283 -5.451 0.0 0
M  V30 4 C 12.3548 -6.5078 0.0 0
M  V30 5 C 14.1182 -4.0807 0.0 0
M  V30 6 C 11.7447 -5.1374 0.0 0
M  V30 7 C 12.6264 -3.9239 0.0 0
M  V30 8 C 12.0163 -2.5536 0.0 0
M  V30 9 O 12.7663 -1.2546 0.0 0
M  V30 10 N 10.549 -2.2417 0.0 0
M  V30 11 C 11.7626 -0.1398 0.0 0
M  V30 12 C 10.3923 -0.7499 0.0 0
M  V30 13 C 12.0744 1.3273 0.0 0
M  V30 14 C 9.0932 0.0 0.0 0
M  V30 15 O 9.0932 1.5 0.0 0
M  V30 16 C 7.7942 2.25 0.0 0
M  V30 17 C 7.7942 3.7499 0.0 0
M  V30 18 C 6.4951 1.5 0.0 0
M  V30 19 F 9.0932 4.4999 0.0 0
M  V30 20 C 6.4951 4.5 0.0 0
M  V30 21 C 5.1961 2.25 0.0 0
M  V30 22 C 5.1961 3.7499 0.0 0
M  V30 23 C 3.8971 1.5 0.0 0
M  V30 24 N 3.8971 0.0 0.0 0
M  V30 25 C 5.1961 -0.75 0.0 0
M  V30 26 C 2.598 -0.75 0.0 0
M  V30 27 O 5.1961 -2.25 0.0 0
M  V30 28 O 6.4951 0.0 0.0 0
M  V30 29 C 1.299 0.0 0.0 0
M  V30 30 C 7.7942 -0.75 0.0 0
M  V30 31 O 1.299 1.5 0.0 0
M  V30 32 O 0.0 -0.75 0.0 0
M  V30 END ATOM
M  V30 BEGIN BOND
M  V30 1 1 1 2
M  V30 2 2 2 3
M  V30 3 1 2 4
M  V30 4 1 3 5
M  V30 5 2 4 6
M  V30 6 2 5 7
M  V30 7 1 7 8
M  V30 8 1 8 9
M  V30 9 2 8 10
M  V30 10 1 9 11
M  V30 11 1 10 12
M  V30 12 1 11 13
M  V30 13 1 12 14
M  V30 14 1 14 15
M  V30 15 1 15 16
M  V30 16 2 16 17
M  V30 17 1 16 18
M  V30 18 1 17 19
M  V30 19 1 17 20
M  V30 20 2 18 21
M  V30 21 2 20 22
M  V30 22 1 21 23
M  V30 23 1 23 24
M  V30 24 1 24 25
M  V30 25 1 24 26
M  V30 26 2 25 27
M  V30 27 1 25 28
M  V30 28 1 26 29
M  V30 29 1 28 30
M  V30 30 2 29 31
M  V30 31 1 29 32
M  V30 32 1 6 7
M  V30 33 2 11 12
M  V30 34 1 21 22
M  V30 END BOND
M  V30 END CTAB
M  END
>  <Molecule ChEMBL ID>
CHEMBL3828232

>  <Smiles>
COC(=O)N(CC(=O)O)Cc1ccc(F)c(OCc2nc(-c3ccc(Cl)cc3)oc2C)c1

>  <IC50_nM>
15000

>  <Assay Description>
Binding affinity to human GST-tagged PPAR-gamma LBD expressed in Escherichia coli BL21 after 30 mins in presence of fluorescein ligand FLA-A by fluorescence polarization assay

$$$$
CHEMBL192582
Actelion Java MolfileCreator 2.0

  0  0  0  0  0  0              0 V3000
M  V30 BEGIN CTAB
M  V30 COUNTS 31 33 0 0 0
M  V30 BEGIN ATOM
M  V30 1 Cl 6.0621 1.0 0.0 0
M  V30 2 C 6.0621 0.0 0.0 0
M  V30 3 C 5.1961 -0.5 0.0 0
M  V30 4 C 6.9282 -0.4999 0.0 0
M  V30 5 O 4.3301 0.0 0.0 0
M  V30 6 C 5.1961 -1.4999 0.0 0
M  V30 7 C 6.9282 -1.4999 0.0 0
M  V30 8 C 3.4641 -0.5 0.0 0
M  V30 9 C 6.0621 -1.9999 0.0 0
M  V30 10 O 7.7942 -1.9999 0.0 0
M  V30 11 C 2.598 0.0 0.0 0
M  V30 12 C 7.7942 -2.9999 0.0 0
M  V30 13 C 1.732 -0.5 0.0 0
M  V30 14 C 8.6602 -3.4999 0.0 0
M  V30 15 O 0.866 0.0 0.0 0
M  V30 16 F 9.1602 -2.6339 0.0 0
M  V30 17 F 9.5262 -3.9999 0.0 0
M  V30 18 F 8.1602 -4.366 0.0 0
M  V30 19 C 0.0 -0.5 0.0 0
M  V30 20 C 0.0 -1.4999 0.0 0
M  V30 21 C -0.866 0.0 0.0 0
M  V30 22 C -0.866 -1.9999 0.0 0
M  V30 23 C -1.732 -0.4999 0.0 0
M  V30 24 C -1.732 -1.4999 0.0 0
M  V30 25 C -1.0739 -2.9781 0.0 0
M  V30 26 O -2.4751 -2.1691 0.0 0
M  V30 27 C -2.0684 -3.0826 0.0 0 CFG=2
M  V30 28 C -2.5684 -3.9487 0.0 0
M  V30 29 C -3.067 -3.0303 0.0 0
M  V30 30 O -2.0684 -4.8147 0.0 0
M  V30 31 O -3.5684 -3.9487 0.0 0
M  V30 END ATOM
M  V30 BEGIN BOND
M  V30 1 1 1 2
M  V30 2 2 2 3
M  V30 3 1 2 4
M  V30 4 1 3 5
M  V30 5 1 3 6
M  V30 6 2 4 7
M  V30 7 1 5 8
M  V30 8 2 6 9
M  V30 9 1 7 10
M  V30 10 1 8 11
M  V30 11 1 10 12
M  V30 12 1 11 13
M  V30 13 1 12 14
M  V30 14 1 13 15
M  V30 15 1 14 16
M  V30 16 1 14 17
M  V30 17 1 14 18
M  V30 18 1 15 19
M  V30 19 2 19 20
M  V30 20 1 19 21
M  V30 21 1 20 22
M  V30 22 2 21 23
M  V30 23 2 22 24
M  V30 24 1 22 25
M  V30 25 1 24 26
M  V30 26 1 25 27
M  V30 27 1 27 28
M  V30 28 1 27 29 CFG=3
M  V30 29 2 28 30
M  V30 30 1 28 31
M  V30 31 1 7 9
M  V30 32 1 23 24
M  V30 33 1 26 27
M  V30 END BOND
M  V30 BEGIN COLLECTION
M  V30 MDLV30/STERAC1 ATOMS=(1 27)
M  V30 END COLLECTION
M  V30 END CTAB
M  END
>  <Molecule ChEMBL ID>
CHEMBL192582

>  <Smiles>
CC1(C(=O)O)Cc2cc(OCCCOc3ccc(OCC(F)(F)F)cc3Cl)ccc2O1

>  <IC50_nM>
15000

>  <Assay Description>
In vitro binding affinity for PPAR-gamma

$$$$
CHEMBL402956
Actelion Java MolfileCreator 2.0

  0  0  0  0  0  0              0 V3000
M  V30 BEGIN CTAB
M  V30 COUNTS 41 45 0 0 0
M  V30 BEGIN ATOM
M  V30 1 O 3.4641 2.4999 0.0 0
M  V30 2 C 4.3301 3.0 0.0 0
M  V30 3 O 4.3301 4.0 0.0 0
M  V30 4 N 5.1961 2.4999 0.0 0
M  V30 5 C 5.1961 4.5 0.0 0
M  V30 6 C 5.1961 1.5 0.0 0
M  V30 7 C 6.0621 2.9999 0.0 0
M  V30 8 C 5.1961 5.4999 0.0 0
M  V30 9 C 6.0621 1.0 0.0 0
M  V30 10 C 6.9282 2.4999 0.0 0
M  V30 11 C 6.0621 5.9999 0.0 0
M  V30 12 C 4.3301 6.0 0.0 0
M  V30 13 C 6.9282 1.5 0.0 0
M  V30 14 C 6.0621 0.0 0.0 0
M  V30 15 C 6.0621 6.9999 0.0 0
M  V30 16 C 4.3301 7.0 0.0 0
M  V30 17 C 7.7942 0.9999 0.0 0
M  V30 18 C 5.1961 -0.5 0.0 0
M  V30 19 C 5.1961 7.4999 0.0 0
M  V30 20 O 7.7942 0.0 0.0 0
M  V30 21 O 8.6602 1.4999 0.0 0
M  V30 22 C 4.3301 0.0 0.0 0
M  V30 23 C 5.1961 -1.4999 0.0 0
M  V30 24 C 3.4641 -0.5 0.0 0
M  V30 25 C 4.3301 -1.9999 0.0 0
M  V30 26 O 2.598 0.0 0.0 0
M  V30 27 C 3.4641 -1.4999 0.0 0
M  V30 28 C 1.732 -0.5 0.0 0
M  V30 29 C 0.866 0.0 0.0 0
M  V30 30 C 0.0 -0.5 0.0 0
M  V30 31 N -0.9135 -0.0932 0.0 0
M  V30 32 C -0.1045 -1.4945 0.0 0
M  V30 33 C -1.5826 -0.8364 0.0 0
M  V30 34 O -1.0826 -1.7024 0.0 0
M  V30 35 C 0.6386 -2.1636 0.0 0
M  V30 36 C -2.5771 -0.7318 0.0 0
M  V30 37 C -2.9839 0.1816 0.0 0
M  V30 38 C -3.1649 -1.5408 0.0 0
M  V30 39 C -3.9784 0.2861 0.0 0
M  V30 40 C -4.1595 -1.4363 0.0 0
M  V30 41 C -4.5662 -0.5228 0.0 0
M  V30 END ATOM
M  V30 BEGIN BOND
M  V30 1 2 1 2
M  V30 2 1 2 3
M  V30 3 1 2 4
M  V30 4 1 3 5
M  V30 5 1 4 6
M  V30 6 1 4 7
M  V30 7 1 5 8
M  V30 8 1 6 9
M  V30 9 1 7 10
M  V30 10 2 8 11
M  V30 11 1 8 12
M  V30 12 2 9 13
M  V30 13 1 9 14
M  V30 14 1 11 15
M  V30 15 2 12 16
M  V30 16 1 13 17
M  V30 17 1 14 18
M  V30 18 2 15 19
M  V30 19 2 17 20
M  V30 20 1 17 21
M  V30 21 2 18 22
M  V30 22 1 18 23
M  V30 23 1 22 24
M  V30 24 2 23 25
M  V30 25 1 24 26
M  V30 26 2 24 27
M  V30 27 1 26 28
M  V30 28 1 28 29
M  V30 29 1 29 30
M  V30 30 1 30 31
M  V30 31 2 30 32
M  V30 32 2 31 33
M  V30 33 1 32 34
M  V30 34 1 32 35
M  V30 35 1 33 36
M  V30 36 2 36 37
M  V30 37 1 36 38
M  V30 38 1 37 39
M  V30 39 2 38 40
M  V30 40 2 39 41
M  V30 41 1 10 13
M  V30 42 1 16 19
M  V30 43 1 25 27
M  V30 44 1 33 34
M  V30 45 1 40 41
M  V30 END BOND
M  V30 END CTAB
M  END
>  <Molecule ChEMBL ID>
CHEMBL402956

>  <Smiles>
Cc1oc(-c2ccccc2)nc1CCOc1cccc(CC2=C(C(=O)O)CCN(C(=O)OCc3ccccc3)C2)c1

>  <IC50_nM>
15000

>  <Assay Description>
Binding affinity at human PPARalpha by fluorescence polarization

$$$$
CHEMBL190603
Actelion Java MolfileCreator 2.0

  0  0  0  0  0  0              0 V3000
M  V30 BEGIN CTAB
M  V30 COUNTS 31 33 0 0 0
M  V30 BEGIN ATOM
M  V30 1 Cl 6.0621 1.0 0.0 0
M  V30 2 C 6.0621 0.0 0.0 0
M  V30 3 C 5.1961 -0.5 0.0 0
M  V30 4 C 6.9282 -0.4999 0.0 0
M  V30 5 O 4.3301 0.0 0.0 0
M  V30 6 C 5.1961 -1.4999 0.0 0
M  V30 7 C 6.9282 -1.4999 0.0 0
M  V30 8 C 3.4641 -0.5 0.0 0
M  V30 9 C 6.0621 -1.9999 0.0 0
M  V30 10 O 7.7942 -1.9999 0.0 0
M  V30 11 C 2.598 0.0 0.0 0
M  V30 12 C 8.6602 -1.4999 0.0 0
M  V30 13 C 1.732 -0.5 0.0 0
M  V30 14 F 8.1602 -0.6339 0.0 0
M  V30 15 F 9.5262 -0.9999 0.0 0
M  V30 16 F 9.1602 -2.366 0.0 0
M  V30 17 O 0.866 0.0 0.0 0
M  V30 18 C 0.0 -0.5 0.0 0
M  V30 19 C 0.0 -1.4999 0.0 0
M  V30 20 C -0.866 0.0 0.0 0
M  V30 21 C -0.866 -1.9999 0.0 0
M  V30 22 C -1.732 -0.4999 0.0 0
M  V30 23 C -1.732 -1.4999 0.0 0
M  V30 24 C -1.0739 -2.9781 0.0 0
M  V30 25 O -2.4751 -2.1691 0.0 0
M  V30 26 C -2.0684 -3.0826 0.0 0 CFG=2
M  V30 27 C -3.067 -3.0303 0.0 0
M  V30 28 C -2.5684 -3.9487 0.0 0
M  V30 29 O -3.6117 -3.869 0.0 0
M  V30 30 O -3.521 -2.1393 0.0 0
M  V30 31 C -2.0684 -4.8147 0.0 0
M  V30 END ATOM
M  V30 BEGIN BOND
M  V30 1 1 1 2
M  V30 2 2 2 3
M  V30 3 1 2 4
M  V30 4 1 3 5
M  V30 5 1 3 6
M  V30 6 2 4 7
M  V30 7 1 5 8
M  V30 8 2 6 9
M  V30 9 1 7 10
M  V30 10 1 8 11
M  V30 11 1 10 12
M  V30 12 1 11 13
M  V30 13 1 12 14
M  V30 14 1 12 15
M  V30 15 1 12 16
M  V30 16 1 13 17
M  V30 17 1 17 18
M  V30 18 2 18 19
M  V30 19 1 18 20
M  V30 20 1 19 21
M  V30 21 2 20 22
M  V30 22 2 21 23
M  V30 23 1 21 24
M  V30 24 1 23 25
M  V30 25 1 24 26
M  V30 26 1 26 27
M  V30 27 1 26 28 CFG=3
M  V30 28 2 27 29
M  V30 29 1 27 30
M  V30 30 1 28 31
M  V30 31 1 7 9
M  V30 32 1 22 23
M  V30 33 1 25 26
M  V30 END BOND
M  V30 BEGIN COLLECTION
M  V30 MDLV30/STEABS ATOMS=(1 26)
M  V30 END COLLECTION
M  V30 END CTAB
M  END
>  <Molecule ChEMBL ID>
CHEMBL190603

>  <Smiles>
CC[C@@]1(C(=O)O)Cc2cc(OCCCOc3ccc(OC(F)(F)F)cc3Cl)ccc2O1

>  <IC50_nM>
15000

>  <Assay Description>
In vitro binding affinity for PPAR-gamma

$$$$
CHEMBL254347
Actelion Java MolfileCreator 2.0

  0  0  0  0  0  0              0 V3000
M  V30 BEGIN CTAB
M  V30 COUNTS 38 41 0 0 0
M  V30 BEGIN ATOM
M  V30 1 O 3.4641 -1.5 0.0 0
M  V30 2 C 3.4641 -0.5 0.0 0
M  V30 3 O 4.3301 0.0 0.0 0
M  V30 4 N 2.598 0.0 0.0 0
M  V30 5 C 5.1961 -0.5 0.0 0
M  V30 6 C 2.598 1.0 0.0 0
M  V30 7 C 1.732 -0.5 0.0 0
M  V30 8 C 5.1961 -1.5 0.0 0
M  V30 9 C 6.0621 0.0 0.0 0
M  V30 10 C 1.732 1.5 0.0 0
M  V30 11 C 1.732 -1.5 0.0 0
M  V30 12 C 6.0621 -2.0 0.0 0
M  V30 13 C 6.9282 -0.5 0.0 0
M  V30 14 C 1.732 2.5 0.0 0
M  V30 15 C 0.866 1.0 0.0 0
M  V30 16 O 2.598 -2.0 0.0 0
M  V30 17 O 0.866 -2.0 0.0 0
M  V30 18 C 6.9282 -1.5 0.0 0
M  V30 19 C 0.866 3.0 0.0 0
M  V30 20 C 0.0 1.5 0.0 0
M  V30 21 O 7.7942 -2.0 0.0 0
M  V30 22 C 0.0 2.5 0.0 0
M  V30 23 O -0.866 3.0 0.0 0
M  V30 24 C -1.732 2.5 0.0 0
M  V30 25 C -2.598 3.0 0.0 0
M  V30 26 C -3.4641 2.5 0.0 0
M  V30 27 N -4.3776 2.9067 0.0 0
M  V30 28 C -3.5686 1.5054 0.0 0
M  V30 29 C -5.0467 2.1635 0.0 0
M  V30 30 O -4.5467 1.2975 0.0 0
M  V30 31 C -2.8254 0.8363 0.0 0
M  V30 32 C -6.0412 2.2681 0.0 0
M  V30 33 O -1.8744 1.1453 0.0 0
M  V30 34 C -6.448 3.1816 0.0 0
M  V30 35 C -6.629 1.4591 0.0 0
M  V30 36 C -7.4425 3.2861 0.0 0
M  V30 37 C -7.6236 1.5636 0.0 0
M  V30 38 C -8.0303 2.4771 0.0 0
M  V30 END ATOM
M  V30 BEGIN BOND
M  V30 1 2 1 2
M  V30 2 1 2 3
M  V30 3 1 2 4
M  V30 4 1 3 5
M  V30 5 1 4 6
M  V30 6 1 4 7
M  V30 7 2 5 8
M  V30 8 1 5 9
M  V30 9 1 6 10
M  V30 10 1 7 11
M  V30 11 1 8 12
M  V30 12 2 9 13
M  V30 13 2 10 14
M  V30 14 1 10 15
M  V30 15 2 11 16
M  V30 16 1 11 17
M  V30 17 2 12 18
M  V30 18 1 14 19
M  V30 19 2 15 20
M  V30 20 1 18 21
M  V30 21 2 19 22
M  V30 22 1 22 23
M  V30 23 1 23 24
M  V30 24 1 24 25
M  V30 25 1 25 26
M  V30 26 1 26 27
M  V30 27 2 26 28
M  V30 28 2 27 29
M  V30 29 1 28 30
M  V30 30 1 28 31
M  V30 31 1 29 32
M  V30 32 1 31 33
M  V30 33 2 32 34
M  V30 34 1 32 35
M  V30 35 1 34 36
M  V30 36 2 35 37
M  V30 37 2 36 38
M  V30 38 1 13 18
M  V30 39 1 20 22
M  V30 40 1 29 30
M  V30 41 1 37 38
M  V30 END BOND
M  V30 END CTAB
M  END
>  <Molecule ChEMBL ID>
CHEMBL254347

>  <Smiles>
O=C(O)CN(Cc1ccc(OCCc2nc(-c3ccccc3)oc2CO)cc1)C(=O)Oc1ccc(O)cc1

>  <IC50_nM>
15000

>  <Assay Description>
Binding affinity at PPAR gamma receptor

$$$$
CHEMBL401829
Actelion Java MolfileCreator 2.0

  0  0  0  0  0  0              0 V3000
M  V30 BEGIN CTAB
M  V30 COUNTS 37 39 0 0 0
M  V30 BEGIN ATOM
M  V30 1 O 15.5884 -0.75 0.0 0
M  V30 2 C 14.2894 0.0 0.0 0
M  V30 3 O 12.9903 -0.75 0.0 0
M  V30 4 N 14.2894 1.4999 0.0 0
M  V30 5 C 12.9903 -2.25 0.0 0
M  V30 6 C 12.9903 2.2499 0.0 0
M  V30 7 C 15.5884 2.2499 0.0 0
M  V30 8 C 14.2894 -3.0 0.0 0
M  V30 9 C 11.6913 -3.0 0.0 0
M  V30 10 C 11.6913 1.4999 0.0 0
M  V30 11 C 15.5884 3.7499 0.0 0
M  V30 12 C 14.2894 -4.5 0.0 0
M  V30 13 C 11.6913 -4.5 0.0 0
M  V30 14 C 10.3923 2.2499 0.0 0
M  V30 15 C 11.6913 0.0 0.0 0
M  V30 16 O 14.2894 4.4999 0.0 0
M  V30 17 O 16.8874 4.4999 0.0 0
M  V30 18 C 12.9903 -5.25 0.0 0
M  V30 19 C 9.0932 1.5 0.0 0
M  V30 20 C 10.3923 -0.75 0.0 0
M  V30 21 O 12.9903 -6.75 0.0 0
M  V30 22 C 9.0932 0.0 0.0 0
M  V30 23 C 11.6913 -7.5 0.0 0
M  V30 24 O 7.7942 -0.75 0.0 0
M  V30 25 C 6.4951 0.0 0.0 0
M  V30 26 C 5.1961 -0.75 0.0 0
M  V30 27 C 3.8971 0.0 0.0 0
M  V30 28 O 3.8971 1.5 0.0 0
M  V30 29 N 2.598 -0.75 0.0 0
M  V30 30 C 1.299 0.0 0.0 0
M  V30 31 O 1.299 1.5 0.0 0
M  V30 32 C 0.0 -0.75 0.0 0
M  V30 33 C -1.299 0.0 0.0 0
M  V30 34 C 0.0 -2.25 0.0 0
M  V30 35 C -2.598 -0.7499 0.0 0
M  V30 36 C -1.299 -2.9999 0.0 0
M  V30 37 C -2.598 -2.2499 0.0 0
M  V30 END ATOM
M  V30 BEGIN BOND
M  V30 1 2 1 2
M  V30 2 1 2 3
M  V30 3 1 2 4
M  V30 4 1 3 5
M  V30 5 1 4 6
M  V30 6 1 4 7
M  V30 7 2 5 8
M  V30 8 1 5 9
M  V30 9 1 6 10
M  V30 10 1 7 11
M  V30 11 1 8 12
M  V30 12 2 9 13
M  V30 13 2 10 14
M  V30 14 1 10 15
M  V30 15 2 11 16
M  V30 16 1 11 17
M  V30 17 2 12 18
M  V30 18 1 14 19
M  V30 19 2 15 20
M  V30 20 1 18 21
M  V30 21 2 19 22
M  V30 22 1 21 23
M  V30 23 1 22 24
M  V30 24 1 24 25
M  V30 25 1 25 26
M  V30 26 1 26 27
M  V30 27 2 27 28
M  V30 28 1 27 29
M  V30 29 1 29 30
M  V30 30 2 30 31
M  V30 31 1 30 32
M  V30 32 2 32 33
M  V30 33 1 32 34
M  V30 34 1 33 35
M  V30 35 2 34 36
M  V30 36 2 35 37
M  V30 37 1 13 18
M  V30 38 1 20 22
M  V30 39 1 36 37
M  V30 END BOND
M  V30 END CTAB
M  END
>  <Molecule ChEMBL ID>
CHEMBL401829

>  <Smiles>
COc1ccc(OC(=O)N(CC(=O)O)Cc2ccc(OCCC(=O)NC(=O)c3ccccc3)cc2)cc1

>  <IC50_nM>
15000

>  <Assay Description>
Binding affinity at PPAR gamma receptor

$$$$
CHEMBL255097
Actelion Java MolfileCreator 2.0

  0  0  0  0  0  0              0 V3000
M  V30 BEGIN CTAB
M  V30 COUNTS 38 41 0 0 0
M  V30 BEGIN ATOM
M  V30 1 O 6.4951 0.0 0.0 0
M  V30 2 C 5.1961 -0.75 0.0 0
M  V30 3 O 3.8971 0.0 0.0 0
M  V30 4 N 5.1961 -2.25 0.0 0
M  V30 5 C 2.598 -0.75 0.0 0
M  V30 6 C 3.8971 -3.0 0.0 0
M  V30 7 C 6.4951 -3.0 0.0 0
M  V30 8 C 1.299 0.0 0.0 0
M  V30 9 C 3.8971 -4.5 0.0 0
M  V30 10 C 6.4951 -4.5 0.0 0
M  V30 11 C 1.299 1.5 0.0 0
M  V30 12 C 0.0 -0.75 0.0 0
M  V30 13 C 2.598 -5.25 0.0 0
M  V30 14 C 5.1961 -5.25 0.0 0
M  V30 15 C 1.299 -4.5 0.0 0
M  V30 16 C 2.598 -6.75 0.0 0
M  V30 17 C 5.1961 -6.75 0.0 0
M  V30 18 C 0.0 -5.25 0.0 0
M  V30 19 C 1.299 -7.5 0.0 0
M  V30 20 C 6.4951 -7.5 0.0 0
M  V30 21 O -1.299 -4.5 0.0 0
M  V30 22 C 0.0 -6.75 0.0 0
M  V30 23 O 7.7942 -6.75 0.0 0
M  V30 24 O 6.4951 -9.0 0.0 0
M  V30 25 C -2.598 -5.25 0.0 0
M  V30 26 C -3.8971 -4.4999 0.0 0
M  V30 27 C -5.1961 -5.25 0.0 0
M  V30 28 N -6.5664 -4.6398 0.0 0
M  V30 29 C -5.3529 -6.7417 0.0 0
M  V30 30 C -7.5701 -5.7546 0.0 0
M  V30 31 O -6.8201 -7.0536 0.0 0
M  V30 32 C -4.2382 -7.7454 0.0 0
M  V30 33 C -9.0619 -5.5978 0.0 0
M  V30 34 C -9.672 -4.2275 0.0 0
M  V30 35 C -9.9436 -6.8113 0.0 0
M  V30 36 C -11.1638 -4.0707 0.0 0
M  V30 37 C -11.4354 -6.6545 0.0 0
M  V30 38 C -12.0455 -5.2842 0.0 0
M  V30 END ATOM
M  V30 BEGIN BOND
M  V30 1 2 1 2
M  V30 2 1 2 3
M  V30 3 1 2 4
M  V30 4 1 3 5
M  V30 5 1 4 6
M  V30 6 1 4 7
M  V30 7 1 5 8
M  V30 8 1 6 9
M  V30 9 1 7 10
M  V30 10 1 8 11
M  V30 11 1 8 12
M  V30 12 1 9 13
M  V30 13 1 9 14
M  V30 14 2 13 15
M  V30 15 1 13 16
M  V30 16 1 14 17
M  V30 17 1 15 18
M  V30 18 2 16 19
M  V30 19 1 17 20
M  V30 20 1 18 21
M  V30 21 2 18 22
M  V30 22 2 20 23
M  V30 23 1 20 24
M  V30 24 1 21 25
M  V30 25 1 25 26
M  V30 26 1 26 27
M  V30 27 1 27 28
M  V30 28 2 27 29
M  V30 29 2 28 30
M  V30 30 1 29 31
M  V30 31 1 29 32
M  V30 32 1 30 33
M  V30 33 2 33 34
M  V30 34 1 33 35
M  V30 35 1 34 36
M  V30 36 2 35 37
M  V30 37 2 36 38
M  V30 38 1 10 14
M  V30 39 1 19 22
M  V30 40 1 30 31
M  V30 41 1 37 38
M  V30 END BOND
M  V30 END CTAB
M  END
>  <Molecule ChEMBL ID>
CHEMBL255097

>  <Smiles>
Cc1oc(-c2ccccc2)nc1CCOc1cccc(C2CN(C(=O)OCC(C)C)CCC2CC(=O)O)c1

>  <IC50_nM>
15000

>  <Assay Description>
Binding affinity at human PPARalpha by fluorescence polarization

$$$$
CHEMBL363154
Actelion Java MolfileCreator 2.0

  0  0  0  0  0  0              0 V3000
M  V30 BEGIN CTAB
M  V30 COUNTS 30 32 0 0 0
M  V30 BEGIN ATOM
M  V30 1 Cl 6.0621 1.0 0.0 0
M  V30 2 C 6.0621 0.0 0.0 0
M  V30 3 C 5.1961 -0.5 0.0 0
M  V30 4 C 6.9282 -0.4999 0.0 0
M  V30 5 O 4.3301 0.0 0.0 0
M  V30 6 C 5.1961 -1.4999 0.0 0
M  V30 7 C 6.9282 -1.4999 0.0 0
M  V30 8 C 3.4641 -0.5 0.0 0
M  V30 9 C 6.0621 -1.9999 0.0 0
M  V30 10 O 7.7942 -1.9999 0.0 0
M  V30 11 C 2.598 0.0 0.0 0
M  V30 12 C 7.7942 -2.9999 0.0 0
M  V30 13 C 1.732 -0.5 0.0 0
M  V30 14 C 8.6602 -3.4999 0.0 0
M  V30 15 O 0.866 0.0 0.0 0
M  V30 16 F 9.1602 -2.6339 0.0 0
M  V30 17 F 9.5262 -3.9999 0.0 0
M  V30 18 F 8.1602 -4.366 0.0 0
M  V30 19 C 0.0 -0.5 0.0 0
M  V30 20 C 0.0 -1.4999 0.0 0
M  V30 21 C -0.866 0.0 0.0 0
M  V30 22 C -0.866 -1.9999 0.0 0
M  V30 23 C -1.732 -0.4999 0.0 0
M  V30 24 C -1.732 -1.4999 0.0 0
M  V30 25 C -1.0739 -2.9781 0.0 0
M  V30 26 O -2.4751 -2.1691 0.0 0
M  V30 27 C -2.0684 -3.0826 0.0 0 CFG=2
M  V30 28 C -2.5684 -3.9487 0.0 0
M  V30 29 O -3.5684 -3.9487 0.0 0
M  V30 30 O -2.0684 -4.8147 0.0 0
M  V30 END ATOM
M  V30 BEGIN BOND
M  V30 1 1 1 2
M  V30 2 2 2 3
M  V30 3 1 2 4
M  V30 4 1 3 5
M  V30 5 1 3 6
M  V30 6 2 4 7
M  V30 7 1 5 8
M  V30 8 2 6 9
M  V30 9 1 7 10
M  V30 10 1 8 11
M  V30 11 1 10 12
M  V30 12 1 11 13
M  V30 13 1 12 14
M  V30 14 1 13 15
M  V30 15 1 14 16
M  V30 16 1 14 17
M  V30 17 1 14 18
M  V30 18 1 15 19
M  V30 19 2 19 20
M  V30 20 1 19 21
M  V30 21 1 20 22
M  V30 22 2 21 23
M  V30 23 2 22 24
M  V30 24 1 22 25
M  V30 25 1 24 26
M  V30 26 1 25 27
M  V30 27 1 27 28 CFG=1
M  V30 28 2 28 29
M  V30 29 1 28 30
M  V30 30 1 7 9
M  V30 31 1 23 24
M  V30 32 1 26 27
M  V30 END BOND
M  V30 BEGIN COLLECTION
M  V30 MDLV30/STERAC1 ATOMS=(1 27)
M  V30 END COLLECTION
M  V30 END CTAB
M  END
>  <Molecule ChEMBL ID>
CHEMBL363154

>  <Smiles>
O=C(O)C1Cc2cc(OCCCOc3ccc(OCC(F)(F)F)cc3Cl)ccc2O1

>  <IC50_nM>
15000

>  <Assay Description>
In vitro binding affinity for PPAR-gamma

$$$$
CHEMBL369289
Actelion Java MolfileCreator 2.0

  0  0  0  0  0  0              0 V3000
M  V30 BEGIN CTAB
M  V30 COUNTS 29 31 0 0 0
M  V30 BEGIN ATOM
M  V30 1 Cl 9.0932 1.5 0.0 0
M  V30 2 C 9.0932 0.0 0.0 0
M  V30 3 C 7.7942 -0.75 0.0 0
M  V30 4 C 10.3923 -0.7499 0.0 0
M  V30 5 O 6.4951 0.0 0.0 0
M  V30 6 C 7.7942 -2.25 0.0 0
M  V30 7 C 10.3923 -2.2499 0.0 0
M  V30 8 C 5.1961 -0.75 0.0 0
M  V30 9 C 9.0932 -2.9999 0.0 0
M  V30 10 O 11.6913 -2.9999 0.0 0
M  V30 11 C 3.8971 0.0 0.0 0
M  V30 12 C 11.6913 -4.4999 0.0 0
M  V30 13 C 2.598 -0.75 0.0 0
M  V30 14 C 12.9903 -5.2499 0.0 0
M  V30 15 O 1.299 0.0 0.0 0
M  V30 16 C 0.0 -0.75 0.0 0
M  V30 17 C -1.299 0.0 0.0 0
M  V30 18 C 0.0 -2.2499 0.0 0
M  V30 19 C -2.598 -0.7499 0.0 0
M  V30 20 C -1.299 -2.9999 0.0 0
M  V30 21 O -3.8971 0.0 0.0 0
M  V30 22 C -2.598 -2.2499 0.0 0
M  V30 23 C -5.1961 -0.7499 0.0 0 CFG=1
M  V30 24 C -3.8971 -2.9999 0.0 0
M  V30 25 C -6.4951 0.0 0.0 0
M  V30 26 C -5.1961 -2.2499 0.0 0
M  V30 27 C -6.4951 -1.4999 0.0 0
M  V30 28 O -7.7942 -0.7499 0.0 0
M  V30 29 O -6.4951 1.5 0.0 0
M  V30 END ATOM
M  V30 BEGIN BOND
M  V30 1 1 1 2
M  V30 2 2 2 3
M  V30 3 1 2 4
M  V30 4 1 3 5
M  V30 5 1 3 6
M  V30 6 2 4 7
M  V30 7 1 5 8
M  V30 8 2 6 9
M  V30 9 1 7 10
M  V30 10 1 8 11
M  V30 11 1 10 12
M  V30 12 1 11 13
M  V30 13 1 12 14
M  V30 14 1 13 15
M  V30 15 1 15 16
M  V30 16 2 16 17
M  V30 17 1 16 18
M  V30 18 1 17 19
M  V30 19 2 18 20
M  V30 20 1 19 21
M  V30 21 2 19 22
M  V30 22 1 21 23
M  V30 23 1 22 24
M  V30 24 1 23 25
M  V30 25 1 23 26
M  V30 26 1 23 27 CFG=1
M  V30 27 2 25 28
M  V30 28 1 25 29
M  V30 29 1 7 9
M  V30 30 1 20 22
M  V30 31 1 24 26
M  V30 END BOND
M  V30 BEGIN COLLECTION
M  V30 MDLV30/STEABS ATOMS=(1 23)
M  V30 END COLLECTION
M  V30 END CTAB
M  END
>  <Molecule ChEMBL ID>
CHEMBL369289

>  <Smiles>
CCOc1ccc(OCCCOc2ccc3c(c2)O[C@@](C)(C(=O)O)CC3)c(Cl)c1

>  <IC50_nM>
15000

>  <Assay Description>
In vitro binding affinity against human PPARgamma

$$$$
CHEMBL178513
Actelion Java MolfileCreator 2.0

  0  0  0  0  0  0              0 V3000
M  V30 BEGIN CTAB
M  V30 COUNTS 31 34 0 0 0
M  V30 BEGIN ATOM
M  V30 1 Cl 6.0621 1.0 0.0 0
M  V30 2 C 6.0621 0.0 0.0 0
M  V30 3 C 5.1961 -0.5 0.0 0
M  V30 4 C 6.9282 -0.4999 0.0 0
M  V30 5 O 4.3301 0.0 0.0 0
M  V30 6 C 5.1961 -1.4999 0.0 0
M  V30 7 C 6.9282 -1.4999 0.0 0
M  V30 8 C 3.4641 -0.5 0.0 0
M  V30 9 C 6.0621 -1.9999 0.0 0
M  V30 10 O 7.7942 -1.9999 0.0 0
M  V30 11 C 2.598 0.0 0.0 0
M  V30 12 C 7.7942 -2.9999 0.0 0
M  V30 13 C 1.732 -0.5 0.0 0
M  V30 14 C 8.6602 -3.4999 0.0 0
M  V30 15 O 0.866 0.0 0.0 0
M  V30 16 C 9.1602 -4.366 0.0 0
M  V30 17 C 9.6602 -3.4999 0.0 0
M  V30 18 C 0.0 -0.5 0.0 0
M  V30 19 C -0.866 0.0 0.0 0
M  V30 20 C 0.0 -1.4999 0.0 0
M  V30 21 C -1.732 -0.4999 0.0 0
M  V30 22 C -0.866 -1.9999 0.0 0
M  V30 23 O -2.598 0.0 0.0 0
M  V30 24 C -1.732 -1.4999 0.0 0
M  V30 25 C -3.4641 -0.4999 0.0 0 CFG=1
M  V30 26 C -2.598 -1.9999 0.0 0
M  V30 27 C -4.3301 0.0 0.0 0
M  V30 28 C -3.4641 -1.4999 0.0 0
M  V30 29 C -4.3301 -0.9999 0.0 0
M  V30 30 O -5.1961 -0.4999 0.0 0
M  V30 31 O -4.3301 1.0 0.0 0
M  V30 END ATOM
M  V30 BEGIN BOND
M  V30 1 1 1 2
M  V30 2 2 2 3
M  V30 3 1 2 4
M  V30 4 1 3 5
M  V30 5 1 3 6
M  V30 6 2 4 7
M  V30 7 1 5 8
M  V30 8 2 6 9
M  V30 9 1 7 10
M  V30 10 1 8 11
M  V30 11 1 10 12
M  V30 12 1 11 13
M  V30 13 1 12 14
M  V30 14 1 13 15
M  V30 15 1 14 16
M  V30 16 1 14 17
M  V30 17 1 15 18
M  V30 18 2 18 19
M  V30 19 1 18 20
M  V30 20 1 19 21
M  V30 21 2 20 22
M  V30 22 1 21 23
M  V30 23 2 21 24
M  V30 24 1 23 25
M  V30 25 1 24 26
M  V30 26 1 25 27
M  V30 27 1 25 28
M  V30 28 1 25 29 CFG=1
M  V30 29 2 27 30
M  V30 30 1 27 31
M  V30 31 1 7 9
M  V30 32 1 16 17
M  V30 33 1 22 24
M  V30 34 1 26 28
M  V30 END BOND
M  V30 BEGIN COLLECTION
M  V30 MDLV30/STEABS ATOMS=(1 25)
M  V30 END COLLECTION
M  V30 END CTAB
M  END
>  <Molecule ChEMBL ID>
CHEMBL178513

>  <Smiles>
C[C@]1(C(=O)O)CCc2ccc(OCCCOc3ccc(OCC4CC4)cc3Cl)cc2O1

>  <IC50_nM>
15000

>  <Assay Description>
In vitro binding affinity against human PPARgamma

$$$$
CHEMBL366145
Actelion Java MolfileCreator 2.0

  0  0  0  0  0  0              0 V3000
M  V30 BEGIN CTAB
M  V30 COUNTS 32 34 0 0 0
M  V30 BEGIN ATOM
M  V30 1 Cl 9.1266 1.5055 0.0 0
M  V30 2 C 9.1266 0.0 0.0 0
M  V30 3 C 7.8228 -0.7527 0.0 0
M  V30 4 C 10.4304 -0.7527 0.0 0
M  V30 5 O 6.519 0.0 0.0 0
M  V30 6 C 7.8228 -2.2582 0.0 0
M  V30 7 C 10.4304 -2.2582 0.0 0
M  V30 8 C 5.2152 -0.7527 0.0 0
M  V30 9 C 9.1266 -3.011 0.0 0
M  V30 10 O 11.7343 -3.011 0.0 0
M  V30 11 C 3.9114 0.0 0.0 0
M  V30 12 C 13.0381 -2.2582 0.0 0
M  V30 13 C 2.6076 -0.7527 0.0 0
M  V30 14 F 12.2853 -0.9544 0.0 0
M  V30 15 F 14.3419 -1.5055 0.0 0
M  V30 16 F 13.7908 -3.562 0.0 0
M  V30 17 O 1.3038 0.0 0.0 0
M  V30 18 C 0.0 -0.7527 0.0 0
M  V30 19 C 0.0 -2.2582 0.0 0
M  V30 20 C -1.3038 0.0 0.0 0
M  V30 21 C -1.3038 -3.011 0.0 0
M  V30 22 C -2.6076 -0.7527 0.0 0
M  V30 23 C -2.6076 -2.2582 0.0 0
M  V30 24 C -1.6168 -4.4836 0.0 0
M  V30 25 O -3.7264 -3.2656 0.0 0
M  V30 26 C -3.114 -4.641 0.0 0 CFG=2
M  V30 27 C -3.8668 -5.9448 0.0 0
M  V30 28 C -4.6175 -4.5622 0.0 0
M  V30 29 O -3.114 -7.2486 0.0 0
M  V30 30 O -5.2253 -6.2155 0.0 0
M  V30 31 C -5.511 -5.6894 0.0 0
M  V30 32 C -5.301 -3.2207 0.0 0
M  V30 END ATOM
M  V30 BEGIN BOND
M  V30 1 1 1 2
M  V30 2 2 2 3
M  V30 3 1 2 4
M  V30 4 1 3 5
M  V30 5 1 3 6
M  V30 6 2 4 7
M  V30 7 1 5 8
M  V30 8 2 6 9
M  V30 9 1 7 10
M  V30 10 1 8 11
M  V30 11 1 10 12
M  V30 12 1 11 13
M  V30 13 1 12 14
M  V30 14 1 12 15
M  V30 15 1 12 16
M  V30 16 1 13 17
M  V30 17 1 17 18
M  V30 18 2 18 19
M  V30 19 1 18 20
M  V30 20 1 19 21
M  V30 21 2 20 22
M  V30 22 2 21 23
M  V30 23 1 21 24
M  V30 24 1 23 25
M  V30 25 1 24 26
M  V30 26 1 26 27 CFG=1
M  V30 27 1 26 28
M  V30 28 2 27 29
M  V30 29 1 27 30
M  V30 30 1 28 31
M  V30 31 1 28 32
M  V30 32 1 7 9
M  V30 33 1 22 23
M  V30 34 1 25 26
M  V30 END BOND
M  V30 BEGIN COLLECTION
M  V30 MDLV30/STEABS ATOMS=(1 26)
M  V30 END COLLECTION
M  V30 END CTAB
M  END
>  <Molecule ChEMBL ID>
CHEMBL366145

>  <Smiles>
CC(C)[C@@]1(C(=O)O)Cc2cc(OCCCOc3ccc(OC(F)(F)F)cc3Cl)ccc2O1

>  <IC50_nM>
15000

>  <Assay Description>
In vitro binding affinity for PPAR-gamma

$$$$
CHEMBL3827335
Actelion Java MolfileCreator 2.0

  0  0  0  0  0  0              0 V3000
M  V30 BEGIN CTAB
M  V30 COUNTS 32 34 0 0 0
M  V30 BEGIN ATOM
M  V30 1 Cl 14.4567 -8.0349 0.0 0
M  V30 2 C 13.8466 -6.6646 0.0 0
M  V30 3 C 14.7283 -5.451 0.0 0
M  V30 4 C 12.3548 -6.5078 0.0 0
M  V30 5 C 14.1182 -4.0807 0.0 0
M  V30 6 C 11.7447 -5.1374 0.0 0
M  V30 7 C 12.6264 -3.9239 0.0 0
M  V30 8 C 12.0163 -2.5536 0.0 0
M  V30 9 O 12.7663 -1.2546 0.0 0
M  V30 10 N 10.549 -2.2417 0.0 0
M  V30 11 C 11.7626 -0.1398 0.0 0
M  V30 12 C 10.3923 -0.7499 0.0 0
M  V30 13 C 12.0744 1.3273 0.0 0
M  V30 14 C 9.0932 0.0 0.0 0
M  V30 15 O 9.0932 1.5 0.0 0
M  V30 16 C 7.7942 2.25 0.0 0
M  V30 17 C 7.7942 3.7499 0.0 0
M  V30 18 C 6.4951 1.5 0.0 0
M  V30 19 C 6.4951 4.5 0.0 0
M  V30 20 C 5.1961 2.25 0.0 0
M  V30 21 F 6.4951 6.0 0.0 0
M  V30 22 C 5.1961 3.7499 0.0 0
M  V30 23 C 3.8971 1.5 0.0 0
M  V30 24 N 3.8971 0.0 0.0 0
M  V30 25 C 5.1961 -0.75 0.0 0
M  V30 26 C 2.598 -0.75 0.0 0
M  V30 27 O 5.1961 -2.25 0.0 0
M  V30 28 O 6.4951 0.0 0.0 0
M  V30 29 C 1.299 0.0 0.0 0
M  V30 30 C 7.7942 -0.75 0.0 0
M  V30 31 O 1.299 1.5 0.0 0
M  V30 32 O 0.0 -0.75 0.0 0
M  V30 END ATOM
M  V30 BEGIN BOND
M  V30 1 1 1 2
M  V30 2 2 2 3
M  V30 3 1 2 4
M  V30 4 1 3 5
M  V30 5 2 4 6
M  V30 6 2 5 7
M  V30 7 1 7 8
M  V30 8 1 8 9
M  V30 9 2 8 10
M  V30 10 1 9 11
M  V30 11 1 10 12
M  V30 12 1 11 13
M  V30 13 1 12 14
M  V30 14 1 14 15
M  V30 15 1 15 16
M  V30 16 2 16 17
M  V30 17 1 16 18
M  V30 18 1 17 19
M  V30 19 2 18 20
M  V30 20 1 19 21
M  V30 21 2 19 22
M  V30 22 1 20 23
M  V30 23 1 23 24
M  V30 24 1 24 25
M  V30 25 1 24 26
M  V30 26 2 25 27
M  V30 27 1 25 28
M  V30 28 1 26 29
M  V30 29 1 28 30
M  V30 30 2 29 31
M  V30 31 1 29 32
M  V30 32 1 6 7
M  V30 33 2 11 12
M  V30 34 1 20 22
M  V30 END BOND
M  V30 END CTAB
M  END
>  <Molecule ChEMBL ID>
CHEMBL3827335

>  <Smiles>
COC(=O)N(CC(=O)O)Cc1cc(F)cc(OCc2nc(-c3ccc(Cl)cc3)oc2C)c1

>  <IC50_nM>
15000

>  <Assay Description>
Binding affinity to human GST-tagged PPAR-gamma LBD expressed in Escherichia coli BL21 after 30 mins in presence of fluorescein ligand FLA-A by fluorescence polarization assay

$$$$
CHEMBL3264932
Actelion Java MolfileCreator 2.0

  0  0  0  0  0  0              0 V3000
M  V30 BEGIN CTAB
M  V30 COUNTS 44 48 0 0 0
M  V30 BEGIN ATOM
M  V30 1 S 12.9903 -6.75 0.0 0
M  V30 2 O 11.4904 -6.7499 0.0 0
M  V30 3 O 12.2404 -8.049 0.0 0
M  V30 4 N 12.9903 -5.25 0.0 0
M  V30 5 C 14.2894 -7.5 0.0 0
M  V30 6 C 11.6913 -4.5 0.0 0
M  V30 7 C 14.2894 -9.0 0.0 0
M  V30 8 C 15.5884 -6.75 0.0 0
M  V30 9 C 11.6913 -3.0 0.0 0
M  V30 10 C 10.3923 -5.25 0.0 0
M  V30 11 C 15.5884 -9.75 0.0 0
M  V30 12 C 16.8875 -7.5 0.0 0
M  V30 13 N 10.3923 -2.25 0.0 0
M  V30 14 C 9.0932 -4.5 0.0 0
M  V30 15 C 16.8875 -9.0 0.0 0
M  V30 16 C 9.0932 -3.0 0.0 0
M  V30 17 C 7.7942 -2.25 0.0 0
M  V30 18 C 7.7942 -0.75 0.0 0
M  V30 19 C 6.4951 -3.0 0.0 0
M  V30 20 C 6.4951 0.0 0.0 0
M  V30 21 C 5.1961 -2.25 0.0 0
M  V30 22 C 5.1961 -0.75 0.0 0
M  V30 23 C 3.8971 0.0 0.0 0
M  V30 24 C 2.598 -0.75 0.0 0
M  V30 25 C 1.299 0.0 0.0 0
M  V30 26 C 0.0 -0.75 0.0 0
M  V30 27 N -1.3703 -0.1398 0.0 0
M  V30 28 N -0.1567 -2.2417 0.0 0
M  V30 29 N -2.374 -1.2546 0.0 0
M  V30 30 C -1.624 -2.5536 0.0 0
M  V30 31 C 0.9579 -3.2454 0.0 0
M  V30 32 C -3.8658 -1.0978 0.0 0
M  V30 33 O -2.2341 -3.9239 0.0 0
M  V30 34 C 2.3845 -2.7819 0.0 0
M  V30 35 C -4.7474 -2.3113 0.0 0
M  V30 36 C -6.2392 -2.1545 0.0 0
M  V30 37 C -4.1373 -3.6816 0.0 0
M  V30 38 C -7.1209 -3.368 0.0 0
M  V30 39 C -5.019 -4.8951 0.0 0
M  V30 40 C -6.5108 -4.7384 0.0 0
M  V30 41 C -7.3925 -5.9519 0.0 0
M  V30 42 C -6.1789 -6.8336 0.0 0
M  V30 43 C -8.2741 -7.1654 0.0 0
M  V30 44 C -8.606 -5.0702 0.0 0
M  V30 END ATOM
M  V30 BEGIN BOND
M  V30 1 2 1 2
M  V30 2 2 1 3
M  V30 3 1 1 4
M  V30 4 1 1 5
M  V30 5 1 4 6
M  V30 6 2 5 7
M  V30 7 1 5 8
M  V30 8 2 6 9
M  V30 9 1 6 10
M  V30 10 1 7 11
M  V30 11 2 8 12
M  V30 12 1 9 13
M  V30 13 2 10 14
M  V30 14 2 11 15
M  V30 15 2 13 16
M  V30 16 1 16 17
M  V30 17 2 17 18
M  V30 18 1 17 19
M  V30 19 1 18 20
M  V30 20 2 19 21
M  V30 21 2 20 22
M  V30 22 1 22 23
M  V30 23 1 23 24
M  V30 24 1 24 25
M  V30 25 1 25 26
M  V30 26 2 26 27
M  V30 27 1 26 28
M  V30 28 1 27 29
M  V30 29 1 28 30
M  V30 30 1 28 31
M  V30 31 1 29 32
M  V30 32 2 30 33
M  V30 33 1 31 34
M  V30 34 1 32 35
M  V30 35 2 35 36
M  V30 36 1 35 37
M  V30 37 1 36 38
M  V30 38 2 37 39
M  V30 39 2 38 40
M  V30 40 1 40 41
M  V30 41 1 41 42
M  V30 42 1 41 43
M  V30 43 1 41 44
M  V30 44 1 12 15
M  V30 45 1 14 16
M  V30 46 1 21 22
M  V30 47 1 29 30
M  V30 48 1 39 40
M  V30 END BOND
M  V30 END CTAB
M  END
>  <Molecule ChEMBL ID>
CHEMBL3264932

>  <Smiles>
CCn1c(CCCc2ccc(-c3ccc(NS(=O)(=O)c4ccccc4)cn3)cc2)nn(Cc2ccc(C(C)(C)C)cc2)c1=O

>  <IC50_nM>
15000

>  <Assay Description>
Inhibition of human PPAR-gamma

$$$$
CHEMBL360992
Actelion Java MolfileCreator 2.0

  0  0  0  0  0  0              0 V3000
M  V30 BEGIN CTAB
M  V30 COUNTS 31 33 0 0 0
M  V30 BEGIN ATOM
M  V30 1 Cl 6.0621 1.0 0.0 0
M  V30 2 C 6.0621 0.0 0.0 0
M  V30 3 C 5.1961 -0.5 0.0 0
M  V30 4 C 6.9282 -0.4999 0.0 0
M  V30 5 O 4.3301 0.0 0.0 0
M  V30 6 C 5.1961 -1.4999 0.0 0
M  V30 7 C 6.9282 -1.4999 0.0 0
M  V30 8 C 3.4641 -0.5 0.0 0
M  V30 9 C 6.0621 -1.9999 0.0 0
M  V30 10 O 7.7942 -1.9999 0.0 0
M  V30 11 C 2.598 0.0 0.0 0
M  V30 12 C 8.6602 -1.4999 0.0 0
M  V30 13 C 1.732 -0.5 0.0 0
M  V30 14 F 8.1602 -0.6339 0.0 0
M  V30 15 F 9.5262 -0.9999 0.0 0
M  V30 16 F 9.1602 -2.366 0.0 0
M  V30 17 O 0.866 0.0 0.0 0
M  V30 18 C 0.0 -0.5 0.0 0
M  V30 19 C -0.866 0.0 0.0 0
M  V30 20 C 0.0 -1.4999 0.0 0
M  V30 21 C -1.732 -0.4999 0.0 0
M  V30 22 C -0.866 -1.9999 0.0 0
M  V30 23 O -2.598 0.0 0.0 0
M  V30 24 C -1.732 -1.4999 0.0 0
M  V30 25 C -3.4641 -0.4999 0.0 0 CFG=1
M  V30 26 C -2.598 -1.9999 0.0 0
M  V30 27 C -4.3301 0.0 0.0 0
M  V30 28 C -3.4641 -1.4999 0.0 0
M  V30 29 C -4.3301 -0.9999 0.0 0
M  V30 30 O -5.1961 -0.4999 0.0 0
M  V30 31 O -4.3301 1.0 0.0 0
M  V30 END ATOM
M  V30 BEGIN BOND
M  V30 1 1 1 2
M  V30 2 2 2 3
M  V30 3 1 2 4
M  V30 4 1 3 5
M  V30 5 1 3 6
M  V30 6 2 4 7
M  V30 7 1 5 8
M  V30 8 2 6 9
M  V30 9 1 7 10
M  V30 10 1 8 11
M  V30 11 1 10 12
M  V30 12 1 11 13
M  V30 13 1 12 14
M  V30 14 1 12 15
M  V30 15 1 12 16
M  V30 16 1 13 17
M  V30 17 1 17 18
M  V30 18 2 18 19
M  V30 19 1 18 20
M  V30 20 1 19 21
M  V30 21 2 20 22
M  V30 22 1 21 23
M  V30 23 2 21 24
M  V30 24 1 23 25
M  V30 25 1 24 26
M  V30 26 1 25 27
M  V30 27 1 25 28
M  V30 28 1 25 29 CFG=1
M  V30 29 2 27 30
M  V30 30 1 27 31
M  V30 31 1 7 9
M  V30 32 1 22 24
M  V30 33 1 26 28
M  V30 END BOND
M  V30 BEGIN COLLECTION
M  V30 MDLV30/STEABS ATOMS=(1 25)
M  V30 END COLLECTION
M  V30 END CTAB
M  END
>  <Molecule ChEMBL ID>
CHEMBL360992

>  <Smiles>
C[C@]1(C(=O)O)CCc2ccc(OCCCOc3ccc(OC(F)(F)F)cc3Cl)cc2O1

>  <IC50_nM>
15000

>  <Assay Description>
In vitro binding affinity against human PPARgamma

$$$$
CHEMBL192774
Actelion Java MolfileCreator 2.0

  0  0  0  0  0  0              0 V3000
M  V30 BEGIN CTAB
M  V30 COUNTS 36 39 0 0 0
M  V30 BEGIN ATOM
M  V30 1 Cl 6.0621 1.0 0.0 0
M  V30 2 C 6.0621 0.0 0.0 0
M  V30 3 C 5.1961 -0.5 0.0 0
M  V30 4 C 6.9282 -0.4999 0.0 0
M  V30 5 O 4.3301 0.0 0.0 0
M  V30 6 C 5.1961 -1.4999 0.0 0
M  V30 7 C 6.9282 -1.4999 0.0 0
M  V30 8 C 3.4641 -0.5 0.0 0
M  V30 9 C 6.0621 -1.9999 0.0 0
M  V30 10 O 7.7942 -1.9999 0.0 0
M  V30 11 C 2.598 0.0 0.0 0
M  V30 12 C 8.6602 -1.4999 0.0 0
M  V30 13 C 1.732 -0.5 0.0 0
M  V30 14 F 8.1602 -0.6339 0.0 0
M  V30 15 F 9.5262 -0.9999 0.0 0
M  V30 16 F 9.1602 -2.366 0.0 0
M  V30 17 O 0.866 0.0 0.0 0
M  V30 18 C 0.0 -0.5 0.0 0
M  V30 19 C 0.0 -1.4999 0.0 0
M  V30 20 C -0.866 0.0 0.0 0
M  V30 21 C -0.866 -1.9999 0.0 0
M  V30 22 C -1.732 -0.4999 0.0 0
M  V30 23 C -1.732 -1.4999 0.0 0
M  V30 24 C -1.0739 -2.9781 0.0 0
M  V30 25 O -2.4751 -2.1691 0.0 0
M  V30 26 C -2.0684 -3.0826 0.0 0 CFG=2
M  V30 27 C -3.067 -3.0303 0.0 0
M  V30 28 C -2.5684 -3.9487 0.0 0
M  V30 29 O -3.6117 -3.869 0.0 0
M  V30 30 O -3.521 -2.1393 0.0 0
M  V30 31 C -2.0684 -4.8147 0.0 0
M  V30 32 C -1.0684 -4.8147 0.0 0
M  V30 33 C -2.5684 -5.6807 0.0 0
M  V30 34 C -0.5684 -5.6807 0.0 0
M  V30 35 C -2.0684 -6.5467 0.0 0
M  V30 36 C -1.0684 -6.5467 0.0 0
M  V30 END ATOM
M  V30 BEGIN BOND
M  V30 1 1 1 2
M  V30 2 2 2 3
M  V30 3 1 2 4
M  V30 4 1 3 5
M  V30 5 1 3 6
M  V30 6 2 4 7
M  V30 7 1 5 8
M  V30 8 2 6 9
M  V30 9 1 7 10
M  V30 10 1 8 11
M  V30 11 1 10 12
M  V30 12 1 11 13
M  V30 13 1 12 14
M  V30 14 1 12 15
M  V30 15 1 12 16
M  V30 16 1 13 17
M  V30 17 1 17 18
M  V30 18 2 18 19
M  V30 19 1 18 20
M  V30 20 1 19 21
M  V30 21 2 20 22
M  V30 22 2 21 23
M  V30 23 1 21 24
M  V30 24 1 23 25
M  V30 25 1 24 26
M  V30 26 1 26 27
M  V30 27 1 26 28 CFG=3
M  V30 28 2 27 29
M  V30 29 1 27 30
M  V30 30 1 28 31
M  V30 31 2 31 32
M  V30 32 1 31 33
M  V30 33 1 32 34
M  V30 34 2 33 35
M  V30 35 2 34 36
M  V30 36 1 7 9
M  V30 37 1 22 23
M  V30 38 1 25 26
M  V30 39 1 35 36
M  V30 END BOND
M  V30 BEGIN COLLECTION
M  V30 MDLV30/STERAC1 ATOMS=(1 26)
M  V30 END COLLECTION
M  V30 END CTAB
M  END
>  <Molecule ChEMBL ID>
CHEMBL192774

>  <Smiles>
O=C(O)C1(Cc2ccccc2)Cc2cc(OCCCOc3ccc(OC(F)(F)F)cc3Cl)ccc2O1

>  <IC50_nM>
15000

>  <Assay Description>
In vitro binding affinity for PPAR-gamma

$$$$
CHEMBL189110
Actelion Java MolfileCreator 2.0

  0  0  0  0  0  0              0 V3000
M  V30 BEGIN CTAB
M  V30 COUNTS 31 33 0 0 0
M  V30 BEGIN ATOM
M  V30 1 Cl 6.0621 1.0 0.0 0
M  V30 2 C 6.0621 0.0 0.0 0
M  V30 3 C 5.1961 -0.5 0.0 0
M  V30 4 C 6.9282 -0.4999 0.0 0
M  V30 5 O 4.3301 0.0 0.0 0
M  V30 6 C 5.1961 -1.4999 0.0 0
M  V30 7 C 6.9282 -1.4999 0.0 0
M  V30 8 C 3.4641 -0.5 0.0 0
M  V30 9 C 6.0621 -1.9999 0.0 0
M  V30 10 C 7.7942 -1.9999 0.0 0
M  V30 11 C 2.598 0.0 0.0 0
M  V30 12 C 8.6602 -1.4999 0.0 0
M  V30 13 C 1.732 -0.5 0.0 0
M  V30 14 F 8.1602 -0.6339 0.0 0
M  V30 15 F 9.5262 -0.9999 0.0 0
M  V30 16 F 9.1602 -2.366 0.0 0
M  V30 17 O 0.866 0.0 0.0 0
M  V30 18 C 0.0 -0.5 0.0 0
M  V30 19 C 0.0 -1.4999 0.0 0
M  V30 20 C -0.866 0.0 0.0 0
M  V30 21 C -0.866 -1.9999 0.0 0
M  V30 22 C -1.732 -0.4999 0.0 0
M  V30 23 C -1.732 -1.4999 0.0 0
M  V30 24 C -1.0739 -2.9781 0.0 0
M  V30 25 O -2.4751 -2.1691 0.0 0
M  V30 26 C -2.0684 -3.0826 0.0 0 CFG=2
M  V30 27 C -3.067 -3.0303 0.0 0
M  V30 28 C -2.5684 -3.9487 0.0 0
M  V30 29 O -3.6117 -3.869 0.0 0
M  V30 30 O -3.521 -2.1393 0.0 0
M  V30 31 C -2.0684 -4.8147 0.0 0
M  V30 END ATOM
M  V30 BEGIN BOND
M  V30 1 1 1 2
M  V30 2 2 2 3
M  V30 3 1 2 4
M  V30 4 1 3 5
M  V30 5 1 3 6
M  V30 6 2 4 7
M  V30 7 1 5 8
M  V30 8 2 6 9
M  V30 9 1 7 10
M  V30 10 1 8 11
M  V30 11 1 10 12
M  V30 12 1 11 13
M  V30 13 1 12 14
M  V30 14 1 12 15
M  V30 15 1 12 16
M  V30 16 1 13 17
M  V30 17 1 17 18
M  V30 18 2 18 19
M  V30 19 1 18 20
M  V30 20 1 19 21
M  V30 21 2 20 22
M  V30 22 2 21 23
M  V30 23 1 21 24
M  V30 24 1 23 25
M  V30 25 1 24 26
M  V30 26 1 26 27
M  V30 27 1 26 28 CFG=3
M  V30 28 2 27 29
M  V30 29 1 27 30
M  V30 30 1 28 31
M  V30 31 1 7 9
M  V30 32 1 22 23
M  V30 33 1 25 26
M  V30 END BOND
M  V30 BEGIN COLLECTION
M  V30 MDLV30/STEABS ATOMS=(1 26)
M  V30 END COLLECTION
M  V30 END CTAB
M  END
>  <Molecule ChEMBL ID>
CHEMBL189110

>  <Smiles>
CC[C@@]1(C(=O)O)Cc2cc(OCCCOc3ccc(CC(F)(F)F)cc3Cl)ccc2O1

>  <IC50_nM>
15000

>  <Assay Description>
In vitro binding affinity for PPAR-gamma

$$$$
CHEMBL363780
Actelion Java MolfileCreator 2.0

  0  0  0  0  0  0              0 V3000
M  V30 BEGIN CTAB
M  V30 COUNTS 33 35 0 0 0
M  V30 BEGIN ATOM
M  V30 1 Cl 6.0621 1.0 0.0 0
M  V30 2 C 6.0621 0.0 0.0 0
M  V30 3 C 5.1961 -0.5 0.0 0
M  V30 4 C 6.9282 -0.4999 0.0 0
M  V30 5 O 4.3301 0.0 0.0 0
M  V30 6 C 5.1961 -1.4999 0.0 0
M  V30 7 C 6.9282 -1.4999 0.0 0
M  V30 8 C 3.4641 -0.5 0.0 0
M  V30 9 C 6.0621 -1.9999 0.0 0
M  V30 10 C 7.7942 -1.9999 0.0 0
M  V30 11 C 2.598 0.0 0.0 0
M  V30 12 C 8.6602 -1.4999 0.0 0
M  V30 13 C 1.732 -0.5 0.0 0
M  V30 14 F 8.1602 -0.6339 0.0 0
M  V30 15 F 9.5262 -0.9999 0.0 0
M  V30 16 F 9.1602 -2.366 0.0 0
M  V30 17 O 0.866 0.0 0.0 0
M  V30 18 C 0.0 -0.5 0.0 0
M  V30 19 C 0.0 -1.4999 0.0 0
M  V30 20 C -0.866 0.0 0.0 0
M  V30 21 C -0.866 -1.9999 0.0 0
M  V30 22 C -1.732 -0.4999 0.0 0
M  V30 23 C -1.732 -1.4999 0.0 0
M  V30 24 C -1.0739 -2.9781 0.0 0
M  V30 25 O -2.4751 -2.1691 0.0 0
M  V30 26 C -2.0684 -3.0826 0.0 0 CFG=1
M  V30 27 C -2.5684 -3.9487 0.0 0
M  V30 28 C -3.067 -3.0303 0.0 0
M  V30 29 O -2.0684 -4.8147 0.0 0
M  V30 30 O -3.59 -3.9448 0.0 0
M  V30 31 C -3.1202 -4.2377 0.0 0
M  V30 32 C -4.0657 -2.978 0.0 0
M  V30 33 C -3.0147 -2.0317 0.0 0
M  V30 END ATOM
M  V30 BEGIN BOND
M  V30 1 1 1 2
M  V30 2 2 2 3
M  V30 3 1 2 4
M  V30 4 1 3 5
M  V30 5 1 3 6
M  V30 6 2 4 7
M  V30 7 1 5 8
M  V30 8 2 6 9
M  V30 9 1 7 10
M  V30 10 1 8 11
M  V30 11 1 10 12
M  V30 12 1 11 13
M  V30 13 1 12 14
M  V30 14 1 12 15
M  V30 15 1 12 16
M  V30 16 1 13 17
M  V30 17 1 17 18
M  V30 18 2 18 19
M  V30 19 1 18 20
M  V30 20 1 19 21
M  V30 21 2 20 22
M  V30 22 2 21 23
M  V30 23 1 21 24
M  V30 24 1 23 25
M  V30 25 1 24 26
M  V30 26 1 26 27 CFG=3
M  V30 27 1 26 28
M  V30 28 2 27 29
M  V30 29 1 27 30
M  V30 30 1 28 31
M  V30 31 1 28 32
M  V30 32 1 28 33
M  V30 33 1 7 9
M  V30 34 1 22 23
M  V30 35 1 25 26
M  V30 END BOND
M  V30 BEGIN COLLECTION
M  V30 MDLV30/STERAC1 ATOMS=(1 26)
M  V30 END COLLECTION
M  V30 END CTAB
M  END
>  <Molecule ChEMBL ID>
CHEMBL363780

>  <Smiles>
CC(C)(C)C1(C(=O)O)Cc2cc(OCCCOc3ccc(CC(F)(F)F)cc3Cl)ccc2O1

>  <IC50_nM>
15000

>  <Assay Description>
In vitro binding affinity for PPAR-gamma

$$$$
CHEMBL426269
Actelion Java MolfileCreator 2.0

  0  0  0  0  0  0              0 V3000
M  V30 BEGIN CTAB
M  V30 COUNTS 31 33 0 0 0
M  V30 BEGIN ATOM
M  V30 1 Cl 9.1277 1.5056 0.0 0
M  V30 2 C 9.1277 0.0 0.0 0
M  V30 3 C 7.8237 -0.7528 0.0 0
M  V30 4 C 10.4316 -0.7528 0.0 0
M  V30 5 O 6.5197 0.0 0.0 0
M  V30 6 C 7.8237 -2.2585 0.0 0
M  V30 7 C 10.4316 -2.2585 0.0 0
M  V30 8 C 5.2158 -0.7528 0.0 0
M  V30 9 C 9.1277 -3.0113 0.0 0
M  V30 10 C 3.9118 0.0 0.0 0
M  V30 11 C 9.1277 -4.517 0.0 0
M  V30 12 C 2.6079 -0.7528 0.0 0
M  V30 13 F 10.6333 -4.517 0.0 0
M  V30 14 F 9.1277 -6.0227 0.0 0
M  V30 15 F 7.622 -4.517 0.0 0
M  V30 16 O 1.3039 0.0 0.0 0
M  V30 17 C 0.0 -0.7528 0.0 0
M  V30 18 C 0.0 -2.2585 0.0 0
M  V30 19 C -1.3039 0.0 0.0 0
M  V30 20 C -1.3039 -3.0113 0.0 0
M  V30 21 C -2.6079 -0.7528 0.0 0
M  V30 22 C -2.6079 -2.2585 0.0 0
M  V30 23 C -1.617 -4.4841 0.0 0
M  V30 24 O -3.7268 -3.266 0.0 0
M  V30 25 C -3.1144 -4.6415 0.0 0 CFG=2
M  V30 26 C -3.8672 -5.9454 0.0 0
M  V30 27 C -4.618 -4.5627 0.0 0
M  V30 28 O -3.1144 -7.2494 0.0 0
M  V30 29 O -5.2259 -6.2162 0.0 0
M  V30 30 C -5.5116 -5.69 0.0 0
M  V30 31 C -5.3016 -3.2211 0.0 0
M  V30 END ATOM
M  V30 BEGIN BOND
M  V30 1 1 1 2
M  V30 2 2 2 3
M  V30 3 1 2 4
M  V30 4 1 3 5
M  V30 5 1 3 6
M  V30 6 2 4 7
M  V30 7 1 5 8
M  V30 8 2 6 9
M  V30 9 1 8 10
M  V30 10 1 9 11
M  V30 11 1 10 12
M  V30 12 1 11 13
M  V30 13 1 11 14
M  V30 14 1 11 15
M  V30 15 1 12 16
M  V30 16 1 16 17
M  V30 17 2 17 18
M  V30 18 1 17 19
M  V30 19 1 18 20
M  V30 20 2 19 21
M  V30 21 2 20 22
M  V30 22 1 20 23
M  V30 23 1 22 24
M  V30 24 1 23 25
M  V30 25 1 25 26 CFG=1
M  V30 26 1 25 27
M  V30 27 2 26 28
M  V30 28 1 26 29
M  V30 29 1 27 30
M  V30 30 1 27 31
M  V30 31 1 7 9
M  V30 32 1 21 22
M  V30 33 1 24 25
M  V30 END BOND
M  V30 BEGIN COLLECTION
M  V30 MDLV30/STEABS ATOMS=(1 25)
M  V30 END COLLECTION
M  V30 END CTAB
M  END
>  <Molecule ChEMBL ID>
CHEMBL426269

>  <Smiles>
CC(C)[C@@]1(C(=O)O)Cc2cc(OCCCOc3cc(C(F)(F)F)ccc3Cl)ccc2O1

>  <IC50_nM>
15000

>  <Assay Description>
In vitro binding affinity for PPAR-gamma

$$$$
CHEMBL1671971
Actelion Java MolfileCreator 2.0

  0  0  0  0  0  0              0 V3000
M  V30 BEGIN CTAB
M  V30 COUNTS 29 31 0 0 0
M  V30 BEGIN ATOM
M  V30 1 S 1.8365 -1.4945 0.0 0
M  V30 2 C 2.8147 -1.7024 0.0 0
M  V30 3 C 1.732 -0.5 0.0 0
M  V30 4 O 3.2214 -2.6159 0.0 0
M  V30 5 N 3.3147 -0.8364 0.0 0
M  V30 6 C 2.6455 -0.0932 0.0 0
M  V30 7 C 0.866 0.0 0.0 0
M  V30 8 O 2.8535 0.8848 0.0 0
M  V30 9 C 0.0 -0.5 0.0 0
M  V30 10 C -0.866 0.0 0.0 0
M  V30 11 C 0.0 -1.4999 0.0 0
M  V30 12 C -1.732 -0.4999 0.0 0
M  V30 13 C -0.866 -1.9999 0.0 0
M  V30 14 O -2.598 0.0 0.0 0
M  V30 15 C -1.732 -1.4999 0.0 0
M  V30 16 C -3.4641 -0.4999 0.0 0
M  V30 17 O -2.598 -1.9999 0.0 0
M  V30 18 C -2.598 -2.9999 0.0 0
M  V30 19 C -3.4641 -3.4999 0.0 0
M  V30 20 C -1.732 -3.4999 0.0 0
M  V30 21 C -3.4641 -4.4999 0.0 0
M  V30 22 C -4.3301 -2.9999 0.0 0
M  V30 23 C -1.732 -4.4999 0.0 0
M  V30 24 C -2.598 -4.9999 0.0 0
M  V30 25 F -4.8301 -3.866 0.0 0
M  V30 26 F -5.1961 -2.4999 0.0 0
M  V30 27 F -3.8301 -2.1339 0.0 0
M  V30 28 C -2.598 -5.9999 0.0 0
M  V30 29 N -2.598 -6.9999 0.0 0
M  V30 END ATOM
M  V30 BEGIN BOND
M  V30 1 1 1 2
M  V30 2 1 1 3
M  V30 3 2 2 4
M  V30 4 1 2 5
M  V30 5 1 3 6
M  V30 6 2 3 7
M  V30 7 2 6 8
M  V30 8 1 7 9
M  V30 9 2 9 10
M  V30 10 1 9 11
M  V30 11 1 10 12
M  V30 12 2 11 13
M  V30 13 1 12 14
M  V30 14 2 12 15
M  V30 15 1 14 16
M  V30 16 1 15 17
M  V30 17 1 17 18
M  V30 18 2 18 19
M  V30 19 1 18 20
M  V30 20 1 19 21
M  V30 21 1 19 22
M  V30 22 2 20 23
M  V30 23 2 21 24
M  V30 24 1 22 25
M  V30 25 1 22 26
M  V30 26 1 22 27
M  V30 27 1 24 28
M  V30 28 3 28 29
M  V30 29 1 5 6
M  V30 30 1 13 15
M  V30 31 1 23 24
M  V30 END BOND
M  V30 END CTAB
M  END
>  <Molecule ChEMBL ID>
CHEMBL1671971

>  <Smiles>
COc1cc(/C=C2\SC(=O)NC2=O)ccc1Oc1ccc(C#N)cc1C(F)(F)F

>  <IC50_nM>
15000

>  <Assay Description>
Antagonist activity at human PPARgamma LBD by cell based luciferase reporter gene assay

$$$$
CHEMBL364774
Actelion Java MolfileCreator 2.0

  0  0  0  0  0  0              0 V3000
M  V30 BEGIN CTAB
M  V30 COUNTS 27 28 0 0 0
M  V30 BEGIN ATOM
M  V30 1 F 7.4072 -2.451 0.0 0
M  V30 2 C 6.4562 -2.76 0.0 0
M  V30 3 F 6.7652 -3.7111 0.0 0
M  V30 4 F 5.5051 -3.069 0.0 0
M  V30 5 C 6.1472 -1.809 0.0 0
M  V30 6 N 6.7349 -1.0 0.0 0
M  V30 7 C 5.1961 -1.4999 0.0 0
M  V30 8 O 6.1472 -0.1909 0.0 0
M  V30 9 C 5.1961 -0.5 0.0 0
M  V30 10 C 4.3301 -1.9999 0.0 0
M  V30 11 C 4.3301 0.0 0.0 0
M  V30 12 C 3.4641 -1.4999 0.0 0
M  V30 13 C 3.4641 -0.5 0.0 0
M  V30 14 C 4.3301 1.0 0.0 0
M  V30 15 C 2.598 -1.9999 0.0 0
M  V30 16 O 2.598 0.0 0.0 0
M  V30 17 C 5.1961 1.4999 0.0 0
M  V30 18 C 1.732 -1.4999 0.0 0
M  V30 19 C 2.598 0.9999 0.0 0 CFG=2
M  V30 20 C 5.1961 2.5 0.0 0
M  V30 21 C 0.866 -1.9999 0.0 0
M  V30 22 C 1.732 1.4999 0.0 0
M  V30 23 C 3.4641 1.5 0.0 0
M  V30 24 C 1.732 0.4999 0.0 0
M  V30 25 O 0.866 0.9999 0.0 0
M  V30 26 O 1.732 2.4999 0.0 0
M  V30 27 C 3.4641 2.5 0.0 0
M  V30 END ATOM
M  V30 BEGIN BOND
M  V30 1 1 1 2
M  V30 2 1 2 3
M  V30 3 1 2 4
M  V30 4 1 2 5
M  V30 5 2 5 6
M  V30 6 1 5 7
M  V30 7 1 6 8
M  V30 8 2 7 9
M  V30 9 1 7 10
M  V30 10 1 9 11
M  V30 11 2 10 12
M  V30 12 2 11 13
M  V30 13 1 11 14
M  V30 14 1 12 15
M  V30 15 1 13 16
M  V30 16 1 14 17
M  V30 17 1 15 18
M  V30 18 1 16 19
M  V30 19 1 17 20
M  V30 20 1 18 21
M  V30 21 1 19 22
M  V30 22 1 19 23
M  V30 23 1 19 24 CFG=1
M  V30 24 2 22 25
M  V30 25 1 22 26
M  V30 26 1 23 27
M  V30 27 1 8 9
M  V30 28 1 12 13
M  V30 END BOND
M  V30 BEGIN COLLECTION
M  V30 MDLV30/STERAC1 ATOMS=(1 19)
M  V30 END COLLECTION
M  V30 END CTAB
M  END
>  <Molecule ChEMBL ID>
CHEMBL364774

>  <Smiles>
CCCc1cc2c(C(F)(F)F)noc2c(CCC)c1OC(C)(CC)C(=O)O

>  <IC50_nM>
15000

>  <Assay Description>
Inhibition of human Peroxisome proliferator activated receptor gamma binding

$$$$
CHEMBL1089501
Actelion Java MolfileCreator 2.0

  0  0  0  0  0  0              0 V3000
M  V30 BEGIN CTAB
M  V30 COUNTS 31 33 0 0 0
M  V30 BEGIN ATOM
M  V30 1 Cl 12.0709 15.4123 0.0 0
M  V30 2 C 11.1892 14.1988 0.0 0
M  V30 3 C 9.6974 14.3556 0.0 0
M  V30 4 C 11.7993 12.8285 0.0 0
M  V30 5 C 8.8158 13.1421 0.0 0
M  V30 6 C 10.9176 11.6149 0.0 0
M  V30 7 C 9.4259 11.7717 0.0 0
M  V30 8 C 8.5442 10.5582 0.0 0
M  V30 9 O 7.0442 10.5582 0.0 0
M  V30 10 N 9.0077 9.1316 0.0 0
M  V30 11 C 6.5807 9.1316 0.0 0
M  V30 12 C 7.7942 8.25 0.0 0
M  V30 13 C 5.1541 8.6681 0.0 0
M  V30 14 C 7.7942 6.75 0.0 0
M  V30 15 O 6.4951 6.0 0.0 0
M  V30 16 C 6.4951 4.5 0.0 0
M  V30 17 C 5.1961 3.75 0.0 0
M  V30 18 C 7.7942 3.75 0.0 0
M  V30 19 C 5.1961 2.25 0.0 0
M  V30 20 C 7.7942 2.25 0.0 0
M  V30 21 C 6.4951 1.5 0.0 0
M  V30 22 C 3.8971 1.5 0.0 0
M  V30 23 N 3.8971 0.0 0.0 0
M  V30 24 C 5.1961 -0.75 0.0 0
M  V30 25 C 2.598 -0.75 0.0 0
M  V30 26 O 5.1961 -2.25 0.0 0
M  V30 27 O 6.4951 0.0 0.0 0
M  V30 28 C 1.299 0.0 0.0 0
M  V30 29 C 7.7942 -0.75 0.0 0
M  V30 30 O 1.299 1.5 0.0 0
M  V30 31 O 0.0 -0.75 0.0 0
M  V30 END ATOM
M  V30 BEGIN BOND
M  V30 1 1 1 2
M  V30 2 2 2 3
M  V30 3 1 2 4
M  V30 4 1 3 5
M  V30 5 2 4 6
M  V30 6 2 5 7
M  V30 7 1 7 8
M  V30 8 1 8 9
M  V30 9 2 8 10
M  V30 10 1 9 11
M  V30 11 1 10 12
M  V30 12 1 11 13
M  V30 13 1 12 14
M  V30 14 1 14 15
M  V30 15 1 15 16
M  V30 16 2 16 17
M  V30 17 1 16 18
M  V30 18 1 17 19
M  V30 19 2 18 20
M  V30 20 2 19 21
M  V30 21 1 19 22
M  V30 22 1 22 23
M  V30 23 1 23 24
M  V30 24 1 23 25
M  V30 25 2 24 26
M  V30 26 1 24 27
M  V30 27 1 25 28
M  V30 28 1 27 29
M  V30 29 2 28 30
M  V30 30 1 28 31
M  V30 31 1 6 7
M  V30 32 2 11 12
M  V30 33 1 20 21
M  V30 END BOND
M  V30 END CTAB
M  END
>  <Molecule ChEMBL ID>
CHEMBL1089501

>  <Smiles>
COC(=O)N(CC(=O)O)Cc1cccc(OCc2nc(-c3ccc(Cl)cc3)oc2C)c1

>  <IC50_nM>
15000

>  <Assay Description>
Binding affinity to human His-tagged PPARgamma LBD (Q203-Y477) expressed in Escherichia coli BL21 (DE3) by fluorescence polarization assay

$$$$
CHEMBL50259
Actelion Java MolfileCreator 2.0

  0  0  0  0  0  0              0 V3000
M  V30 BEGIN CTAB
M  V30 COUNTS 31 34 0 0 0
M  V30 BEGIN ATOM
M  V30 1 S 7.8987 -2.9945 0.0 0
M  V30 2 C 8.8769 -3.2024 0.0 0
M  V30 3 C 7.7942 -2.0 0.0 0 CFG=2
M  V30 4 O 9.2836 -4.1159 0.0 0
M  V30 5 N 9.3769 -2.3364 0.0 0
M  V30 6 C 6.9282 -1.5 0.0 0
M  V30 7 C 8.7077 -1.5932 0.0 0
M  V30 8 C 6.9282 -0.5 0.0 0
M  V30 9 C 6.0621 -2.0 0.0 0
M  V30 10 O 8.9156 -0.6151 0.0 0
M  V30 11 C 6.0621 0.0 0.0 0
M  V30 12 C 5.1961 -1.5 0.0 0
M  V30 13 C 5.1961 -0.5 0.0 0
M  V30 14 O 4.3301 0.0 0.0 0
M  V30 15 C 3.4641 -0.5 0.0 0
M  V30 16 C 2.598 0.0 0.0 0
M  V30 17 C 1.732 -0.5 0.0 0
M  V30 18 O 0.866 0.0 0.0 0
M  V30 19 C 0.0 -0.5 0.0 0
M  V30 20 C -0.866 0.0 0.0 0
M  V30 21 C 0.0 -1.4999 0.0 0
M  V30 22 C -1.732 -0.4999 0.0 0
M  V30 23 C -0.866 -1.9999 0.0 0
M  V30 24 C -1.732 -1.4999 0.0 0
M  V30 25 O -2.598 -1.9999 0.0 0
M  V30 26 C -2.598 -2.9999 0.0 0
M  V30 27 C -3.4641 -3.4999 0.0 0
M  V30 28 C -1.732 -3.4999 0.0 0
M  V30 29 C -3.4641 -4.4999 0.0 0
M  V30 30 C -1.732 -4.4999 0.0 0
M  V30 31 C -2.598 -4.9999 0.0 0
M  V30 END ATOM
M  V30 BEGIN BOND
M  V30 1 1 1 2
M  V30 2 1 1 3
M  V30 3 2 2 4
M  V30 4 1 2 5
M  V30 5 1 3 6 CFG=3
M  V30 6 1 3 7
M  V30 7 2 6 8
M  V30 8 1 6 9
M  V30 9 2 7 10
M  V30 10 1 8 11
M  V30 11 2 9 12
M  V30 12 2 11 13
M  V30 13 1 13 14
M  V30 14 1 14 15
M  V30 15 1 15 16
M  V30 16 1 16 17
M  V30 17 1 17 18
M  V30 18 1 18 19
M  V30 19 2 19 20
M  V30 20 1 19 21
M  V30 21 1 20 22
M  V30 22 2 21 23
M  V30 23 2 22 24
M  V30 24 1 24 25
M  V30 25 1 25 26
M  V30 26 2 26 27
M  V30 27 1 26 28
M  V30 28 1 27 29
M  V30 29 2 28 30
M  V30 30 2 29 31
M  V30 31 1 5 7
M  V30 32 1 12 13
M  V30 33 1 23 24
M  V30 34 1 30 31
M  V30 END BOND
M  V30 BEGIN COLLECTION
M  V30 MDLV30/STERAC1 ATOMS=(1 3)
M  V30 END COLLECTION
M  V30 END CTAB
M  END
>  <Molecule ChEMBL ID>
CHEMBL50259

>  <Smiles>
O=C1NC(=O)C(c2ccc(OCCCOc3ccc(Oc4ccccc4)cc3)cc2)S1

>  <IC50_nM>
15000

>  <Assay Description>
In vitro binding affinity against human PPAR gamma (peroxisome proliferator-activated gamma receptor)

$$$$
CHEMBL3827820
Actelion Java MolfileCreator 2.0

  0  0  0  0  0  0              0 V3000
M  V30 BEGIN CTAB
M  V30 COUNTS 32 34 0 0 0
M  V30 BEGIN ATOM
M  V30 1 Cl -8.1588 1.0817 0.0 0
M  V30 2 C -7.1643 0.9771 0.0 0
M  V30 3 C -6.7575 0.0636 0.0 0
M  V30 4 C -6.5765 1.7861 0.0 0
M  V30 5 C -5.763 -0.0408 0.0 0
M  V30 6 C -5.582 1.6816 0.0 0
M  V30 7 C -5.1752 0.7681 0.0 0
M  V30 8 C -4.1807 0.6635 0.0 0
M  V30 9 O -3.6807 -0.2024 0.0 0
M  V30 10 N -3.5116 1.4067 0.0 0
M  V30 11 C -2.7026 0.0054 0.0 0
M  V30 12 C -2.598 0.9999 0.0 0
M  V30 13 C -1.9594 -0.6636 0.0 0
M  V30 14 C -1.732 1.4999 0.0 0
M  V30 15 O -0.866 0.9999 0.0 0
M  V30 16 C 0.0 1.4999 0.0 0
M  V30 17 C 0.866 0.9999 0.0 0
M  V30 18 C 0.0 2.4999 0.0 0
M  V30 19 C 1.732 1.5 0.0 0
M  V30 20 C 0.866 2.9999 0.0 0
M  V30 21 C 1.732 2.5 0.0 0
M  V30 22 C 2.598 1.0 0.0 0 CFG=1
M  V30 23 N 3.4641 1.5 0.0 0
M  V30 24 C 2.598 0.0 0.0 0
M  V30 25 C 4.3301 1.0 0.0 0
M  V30 26 C 3.4641 2.5 0.0 0
M  V30 27 O 5.1961 1.5 0.0 0
M  V30 28 O 4.3301 0.0 0.0 0
M  V30 29 C 4.3301 3.0 0.0 0
M  V30 30 C 5.1961 -0.4999 0.0 0
M  V30 31 O 5.1961 2.5 0.0 0
M  V30 32 O 4.3301 4.0 0.0 0
M  V30 END ATOM
M  V30 BEGIN BOND
M  V30 1 1 1 2
M  V30 2 2 2 3
M  V30 3 1 2 4
M  V30 4 1 3 5
M  V30 5 2 4 6
M  V30 6 2 5 7
M  V30 7 1 7 8
M  V30 8 1 8 9
M  V30 9 2 8 10
M  V30 10 1 9 11
M  V30 11 1 10 12
M  V30 12 1 11 13
M  V30 13 1 12 14
M  V30 14 1 14 15
M  V30 15 1 15 16
M  V30 16 2 16 17
M  V30 17 1 16 18
M  V30 18 1 17 19
M  V30 19 2 18 20
M  V30 20 2 19 21
M  V30 21 1 19 22
M  V30 22 1 22 23
M  V30 23 1 22 24 CFG=1
M  V30 24 1 23 25
M  V30 25 1 23 26
M  V30 26 2 25 27
M  V30 27 1 25 28
M  V30 28 1 26 29
M  V30 29 1 28 30
M  V30 30 2 29 31
M  V30 31 1 29 32
M  V30 32 1 6 7
M  V30 33 2 11 12
M  V30 34 1 20 21
M  V30 END BOND
M  V30 BEGIN COLLECTION
M  V30 MDLV30/STEABS ATOMS=(1 22)
M  V30 END COLLECTION
M  V30 END CTAB
M  END
>  <Molecule ChEMBL ID>
CHEMBL3827820

>  <Smiles>
COC(=O)N(CC(=O)O)[C@@H](C)c1cccc(OCc2nc(-c3ccc(Cl)cc3)oc2C)c1

>  <IC50_nM>
15000

>  <Assay Description>
Binding affinity to human GST-tagged PPAR-gamma LBD expressed in Escherichia coli BL21 after 30 mins in presence of fluorescein ligand FLA-A by fluorescence polarization assay

$$$$
CHEMBL4528757
Actelion Java MolfileCreator 2.0

  0  0  0  0  0  0              0 V3000
M  V30 BEGIN CTAB
M  V30 COUNTS 35 38 0 0 0
M  V30 BEGIN ATOM
M  V30 1 O 6.4951 0.0 0.0 0
M  V30 2 C 5.1961 -0.75 0.0 0
M  V30 3 O 5.1961 -2.25 0.0 0
M  V30 4 C 3.8971 0.0 0.0 0
M  V30 5 C 3.8971 1.5 0.0 0
M  V30 6 C 2.598 -0.75 0.0 0
M  V30 7 C 2.598 2.25 0.0 0
M  V30 8 C 1.299 0.0 0.0 0
M  V30 9 C 2.598 3.75 0.0 0
M  V30 10 C 1.299 1.5 0.0 0
M  V30 11 C 0.0 -0.75 0.0 0
M  V30 12 O 3.8971 4.5 0.0 0
M  V30 13 C 1.299 4.5 0.0 0
M  V30 14 C 0.0 2.25 0.0 0
M  V30 15 C 5.1961 3.7499 0.0 0
M  V30 16 C 0.0 3.75 0.0 0
M  V30 17 O -1.299 1.5 0.0 0
M  V30 18 C 6.4951 4.4999 0.0 0
M  V30 19 C -2.598 2.25 0.0 0
M  V30 20 C 7.7942 3.7499 0.0 0
M  V30 21 C 6.4951 5.9999 0.0 0
M  V30 22 C -3.8971 1.5 0.0 0
M  V30 23 C 9.0932 4.4999 0.0 0
M  V30 24 C 7.7942 6.7499 0.0 0
M  V30 25 C -5.1961 2.25 0.0 0
M  V30 26 C -3.8971 0.0 0.0 0
M  V30 27 N 9.0932 5.9999 0.0 0
M  V30 28 C -6.4951 1.5 0.0 0
M  V30 29 C -5.1961 -0.7499 0.0 0
M  V30 30 C 10.3923 6.7499 0.0 0
M  V30 31 C -6.4951 0.0 0.0 0
M  V30 32 C -7.7942 2.25 0.0 0
M  V30 33 N -7.7942 -0.7499 0.0 0
M  V30 34 C -9.0932 1.5 0.0 0
M  V30 35 C -9.0932 0.0 0.0 0
M  V30 END ATOM
M  V30 BEGIN BOND
M  V30 1 2 1 2
M  V30 2 1 2 3
M  V30 3 1 2 4
M  V30 4 2 4 5
M  V30 5 1 4 6
M  V30 6 1 5 7
M  V30 7 1 6 8
M  V30 8 2 7 9
M  V30 9 1 7 10
M  V30 10 1 8 11
M  V30 11 1 9 12
M  V30 12 1 9 13
M  V30 13 2 10 14
M  V30 14 1 12 15
M  V30 15 2 13 16
M  V30 16 1 14 17
M  V30 17 1 15 18
M  V30 18 1 17 19
M  V30 19 1 18 20
M  V30 20 1 18 21
M  V30 21 1 19 22
M  V30 22 1 20 23
M  V30 23 1 21 24
M  V30 24 2 22 25
M  V30 25 1 22 26
M  V30 26 1 23 27
M  V30 27 1 25 28
M  V30 28 2 26 29
M  V30 29 1 27 30
M  V30 30 1 28 31
M  V30 31 2 28 32
M  V30 32 2 31 33
M  V30 33 1 32 34
M  V30 34 1 33 35
M  V30 35 1 14 16
M  V30 36 1 24 27
M  V30 37 1 29 31
M  V30 38 2 34 35
M  V30 END BOND
M  V30 END CTAB
M  END
>  <Molecule ChEMBL ID>
CHEMBL4528757

>  <Smiles>
CCC/C(=C\c1cc(OCc2ccc3ncccc3c2)ccc1OCC1CCN(C)CC1)C(=O)O

>  <IC50_nM>
15100

>  <Assay Description>
Antagonist actvity in pFA-GAL4-DBD fused PPARgamma LBD (unknown origin) transfected in HEK293T cells assessed as inhibition of rosiglitazone-induced PPARgamma transactivation incubated for 24 hrs by luciferase reporter gene assay

$$$$
CHEMBL515773
Actelion Java MolfileCreator 2.0

  0  0  0  0  0  0              0 V3000
M  V30 BEGIN CTAB
M  V30 COUNTS 25 26 0 0 0
M  V30 BEGIN ATOM
M  V30 1 O 5.1961 1.4999 0.0 0
M  V30 2 C 4.3301 0.9999 0.0 0
M  V30 3 O 3.4641 1.5 0.0 0
M  V30 4 C 4.3301 0.0 0.0 0 CFG=1
M  V30 5 N 5.1961 -0.5 0.0 0
M  V30 6 C 3.4641 -0.5 0.0 0
M  V30 7 C 6.0621 0.0 0.0 0
M  V30 8 C 2.598 0.0 0.0 0
M  V30 9 O 6.0621 0.9999 0.0 0
M  V30 10 C 6.9282 -0.5 0.0 0 CFG=1
M  V30 11 C 1.732 -0.5 0.0 0
M  V30 12 N 6.9282 -1.4999 0.0 0
M  V30 13 C 7.7942 0.0 0.0 0
M  V30 14 C 0.866 0.0 0.0 0
M  V30 15 C 8.6602 -0.5 0.0 0
M  V30 16 O 0.866 1.0 0.0 0
M  V30 17 O 0.0 -0.5 0.0 0
M  V30 18 C 8.7647 -1.4945 0.0 0
M  V30 19 C 9.5737 -0.0932 0.0 0
M  V30 20 C 9.7429 -1.7024 0.0 0
M  V30 21 C 8.0956 -2.2376 0.0 0
M  V30 22 N 10.2429 -0.8364 0.0 0
M  V30 23 C 10.0519 -2.6534 0.0 0
M  V30 24 C 8.4046 -3.1887 0.0 0
M  V30 25 C 9.3828 -3.3966 0.0 0
M  V30 END ATOM
M  V30 BEGIN BOND
M  V30 1 2 1 2
M  V30 2 1 2 3
M  V30 3 1 2 4
M  V30 4 1 4 5 CFG=1
M  V30 5 1 4 6
M  V30 6 1 5 7
M  V30 7 1 6 8
M  V30 8 2 7 9
M  V30 9 1 7 10
M  V30 10 1 8 11
M  V30 11 1 10 12 CFG=3
M  V30 12 1 10 13
M  V30 13 1 11 14
M  V30 14 1 13 15
M  V30 15 2 14 16
M  V30 16 1 14 17
M  V30 17 1 15 18
M  V30 18 2 15 19
M  V30 19 2 18 20
M  V30 20 1 18 21
M  V30 21 1 19 22
M  V30 22 1 20 23
M  V30 23 2 21 24
M  V30 24 2 23 25
M  V30 25 1 20 22
M  V30 26 1 24 25
M  V30 END BOND
M  V30 BEGIN COLLECTION
M  V30 MDLV30/STEABS ATOMS=(2 4 10)
M  V30 END COLLECTION
M  V30 END CTAB
M  END
>  <Molecule ChEMBL ID>
CHEMBL515773

>  <Smiles>
N[C@@H](Cc1c[nH]c2ccccc12)C(=O)N[C@@H](CCCC(=O)O)C(=O)O

>  <IC50_nM>
15100

>  <Assay Description>
Antagonist activity at human PPARgamma receptor expressed in Saccharomyces cerevisiae AH109 co-transfected with mouse CBP assessed as inhibition of rosiglitazone-induced LBD-CBP interaction by alpha-galactosidase based yeast two hybrid assay

$$$$
CHEMBL477417
Actelion Java MolfileCreator 2.0

  0  0  0  0  0  0              0 V3000
M  V30 BEGIN CTAB
M  V30 COUNTS 26 27 0 0 0
M  V30 BEGIN ATOM
M  V30 1 O 4.3301 -1.9999 0.0 0
M  V30 2 C 5.1961 -1.4999 0.0 0
M  V30 3 O 6.0621 -2.0 0.0 0
M  V30 4 C 5.1961 -0.5 0.0 0 CFG=1
M  V30 5 N 6.0621 0.0 0.0 0
M  V30 6 C 4.3301 0.0 0.0 0
M  V30 7 C 6.9282 -0.5 0.0 0
M  V30 8 C 3.4641 -0.5 0.0 0
M  V30 9 O 6.9282 -1.4999 0.0 0
M  V30 10 C 7.7942 0.0 0.0 0 CFG=1
M  V30 11 C 2.598 0.0 0.0 0
M  V30 12 N 7.7942 0.9999 0.0 0
M  V30 13 C 8.6602 -0.5 0.0 0
M  V30 14 N 1.732 -0.5 0.0 0
M  V30 15 C 9.5262 0.0 0.0 0
M  V30 16 C 0.866 0.0 0.0 0
M  V30 17 C 10.4398 -0.4067 0.0 0
M  V30 18 C 9.6308 0.9945 0.0 0
M  V30 19 N 0.866 1.0 0.0 0
M  V30 20 N 0.0 -0.5 0.0 0
M  V30 21 C 11.1089 0.3364 0.0 0
M  V30 22 C 10.7488 -1.3577 0.0 0
M  V30 23 N 10.6089 1.2024 0.0 0
M  V30 24 C 12.0871 0.1284 0.0 0
M  V30 25 C 11.7269 -1.5657 0.0 0
M  V30 26 C 12.3961 -0.8225 0.0 0
M  V30 END ATOM
M  V30 BEGIN BOND
M  V30 1 2 1 2
M  V30 2 1 2 3
M  V30 3 1 2 4
M  V30 4 1 4 5 CFG=3
M  V30 5 1 4 6
M  V30 6 1 5 7
M  V30 7 1 6 8
M  V30 8 2 7 9
M  V30 9 1 7 10
M  V30 10 1 8 11
M  V30 11 1 10 12 CFG=1
M  V30 12 1 10 13
M  V30 13 1 11 14
M  V30 14 1 13 15
M  V30 15 1 14 16
M  V30 16 1 15 17
M  V30 17 2 15 18
M  V30 18 2 16 19
M  V30 19 1 16 20
M  V30 20 2 17 21
M  V30 21 1 17 22
M  V30 22 1 18 23
M  V30 23 1 21 24
M  V30 24 2 22 25
M  V30 25 2 24 26
M  V30 26 1 21 23
M  V30 27 1 25 26
M  V30 END BOND
M  V30 BEGIN COLLECTION
M  V30 MDLV30/STEABS ATOMS=(2 4 10)
M  V30 END COLLECTION
M  V30 END CTAB
M  END
>  <Molecule ChEMBL ID>
CHEMBL477417

>  <Smiles>
N=C(N)NCCC[C@H](NC(=O)[C@@H](N)Cc1c[nH]c2ccccc12)C(=O)O

>  <IC50_nM>
15400

>  <Assay Description>
Antagonist activity at human PPARgamma receptor expressed in Saccharomyces cerevisiae AH109 co-transfected with mouse CBP assessed as inhibition of rosiglitazone-induced LBD-CBP interaction by alpha-galactosidase based yeast two hybrid assay

$$$$
CHEMBL4438177
Actelion Java MolfileCreator 2.0

  0  0  0  0  0  0              0 V3000
M  V30 BEGIN CTAB
M  V30 COUNTS 35 38 0 0 0
M  V30 BEGIN ATOM
M  V30 1 F 0.0 4.4999 0.0 0
M  V30 2 C 0.866 3.9999 0.0 0
M  V30 3 C 0.866 2.9999 0.0 0
M  V30 4 C 1.732 4.4999 0.0 0
M  V30 5 C 1.732 2.4999 0.0 0
M  V30 6 C 2.598 3.9999 0.0 0
M  V30 7 C 2.598 3.0 0.0 0
M  V30 8 C 3.4641 2.5 0.0 0
M  V30 9 O 3.4641 1.4999 0.0 0
M  V30 10 C 4.3301 1.0 0.0 0
M  V30 11 C 4.3301 0.0 0.0 0
M  V30 12 C 5.1961 1.5 0.0 0
M  V30 13 C 5.1961 -0.4999 0.0 0
M  V30 14 C 3.4641 -0.5 0.0 0
M  V30 15 C 6.0621 1.0 0.0 0
M  V30 16 C 6.0621 0.0 0.0 0
M  V30 17 C 3.4641 -1.5 0.0 0
M  V30 18 O 6.9282 -0.4999 0.0 0
M  V30 19 C 2.598 -1.9999 0.0 0
M  V30 20 C 4.3301 -2.0 0.0 0
M  V30 21 C 6.9282 -1.4999 0.0 0
M  V30 22 O 1.732 -1.4999 0.0 0
M  V30 23 O 2.598 -2.9999 0.0 0
M  V30 24 C 4.3301 -3.0 0.0 0
M  V30 25 C 7.7942 -1.9999 0.0 0
M  V30 26 C 5.1961 -3.5 0.0 0
M  V30 27 C 7.7942 -2.9999 0.0 0
M  V30 28 C 8.6602 -1.4999 0.0 0
M  V30 29 C 8.6602 -3.4999 0.0 0
M  V30 30 C 9.5262 -1.9999 0.0 0
M  V30 31 C 9.5262 -2.9999 0.0 0
M  V30 32 C 8.6602 -4.4999 0.0 0
M  V30 33 C 10.3923 -3.4999 0.0 0
M  V30 34 C 9.5262 -4.9999 0.0 0
M  V30 35 C 10.3923 -4.4999 0.0 0
M  V30 END ATOM
M  V30 BEGIN BOND
M  V30 1 1 1 2
M  V30 2 2 2 3
M  V30 3 1 2 4
M  V30 4 1 3 5
M  V30 5 2 4 6
M  V30 6 2 5 7
M  V30 7 1 7 8
M  V30 8 1 8 9
M  V30 9 1 9 10
M  V30 10 2 10 11
M  V30 11 1 10 12
M  V30 12 1 11 13
M  V30 13 1 11 14
M  V30 14 2 12 15
M  V30 15 2 13 16
M  V30 16 2 14 17
M  V30 17 1 16 18
M  V30 18 1 17 19
M  V30 19 1 17 20
M  V30 20 1 18 21
M  V30 21 2 19 22
M  V30 22 1 19 23
M  V30 23 1 20 24
M  V30 24 1 21 25
M  V30 25 1 24 26
M  V30 26 2 25 27
M  V30 27 1 25 28
M  V30 28 1 27 29
M  V30 29 2 28 30
M  V30 30 1 29 31
M  V30 31 2 29 32
M  V30 32 2 31 33
M  V30 33 1 32 34
M  V30 34 1 33 35
M  V30 35 1 6 7
M  V30 36 1 15 16
M  V30 37 1 30 31
M  V30 38 2 34 35
M  V30 END BOND
M  V30 END CTAB
M  END
>  <Molecule ChEMBL ID>
CHEMBL4438177

>  <Smiles>
CCC/C(=C\c1cc(OCc2ccc3ccccc3c2)ccc1OCc1ccc(F)cc1)C(=O)O

>  <IC50_nM>
15800

>  <Assay Description>
Antagonist actvity in pFA-GAL4-DBD fused PPARgamma LBD (unknown origin) transfected in HEK293T cells assessed as inhibition of rosiglitazone-induced PPARgamma transactivation incubated for 24 hrs by luciferase reporter gene assay

$$$$
CHEMBL4090489
Actelion Java MolfileCreator 2.0

  0  0  0  0  0  0              0 V3000
M  V30 BEGIN CTAB
M  V30 COUNTS 29 32 0 0 0
M  V30 BEGIN ATOM
M  V30 1 S 4.2731 -2.0877 0.0 0
M  V30 2 C 3.4641 -1.5 0.0 0
M  V30 3 C 3.9641 -3.0388 0.0 0
M  V30 4 N 2.655 -2.0877 0.0 0
M  V30 5 N 3.4641 -0.5 0.0 0
M  V30 6 C 2.9641 -3.0388 0.0 0
M  V30 7 C 4.4641 -3.9048 0.0 0
M  V30 8 C 2.598 0.0 0.0 0
M  V30 9 C 4.3301 0.0 0.0 0
M  V30 10 C 2.4641 -3.9048 0.0 0
M  V30 11 C 3.9641 -4.7708 0.0 0
M  V30 12 C 1.732 -0.5 0.0 0
M  V30 13 C 5.1961 -0.5 0.0 0
M  V30 14 C 2.9641 -4.7708 0.0 0
M  V30 15 O 0.866 0.0 0.0 0
M  V30 16 C 0.0 -0.5 0.0 0
M  V30 17 C -0.866 0.0 0.0 0
M  V30 18 C 0.0 -1.4999 0.0 0
M  V30 19 C -1.732 -0.4999 0.0 0
M  V30 20 C -0.866 -1.9999 0.0 0
M  V30 21 C -1.732 -1.4999 0.0 0
M  V30 22 C -2.598 -1.9999 0.0 0
M  V30 23 C -2.598 -2.9999 0.0 0
M  V30 24 S -1.789 -3.5877 0.0 0
M  V30 25 C -3.407 -3.5877 0.0 0
M  V30 26 C -2.098 -4.5388 0.0 0
M  V30 27 O -4.3581 -3.2787 0.0 0
M  V30 28 N -3.098 -4.5388 0.0 0
M  V30 29 O -1.5102 -5.3478 0.0 0
M  V30 END ATOM
M  V30 BEGIN BOND
M  V30 1 1 1 2
M  V30 2 1 1 3
M  V30 3 2 2 4
M  V30 4 1 2 5
M  V30 5 2 3 6
M  V30 6 1 3 7
M  V30 7 1 5 8
M  V30 8 1 5 9
M  V30 9 1 6 10
M  V30 10 2 7 11
M  V30 11 1 8 12
M  V30 12 1 9 13
M  V30 13 2 10 14
M  V30 14 1 12 15
M  V30 15 1 15 16
M  V30 16 2 16 17
M  V30 17 1 16 18
M  V30 18 1 17 19
M  V30 19 2 18 20
M  V30 20 2 19 21
M  V30 21 1 21 22
M  V30 22 2 22 23
M  V30 23 1 23 24
M  V30 24 1 23 25
M  V30 25 1 24 26
M  V30 26 2 25 27
M  V30 27 1 25 28
M  V30 28 2 26 29
M  V30 29 1 4 6
M  V30 30 1 11 14
M  V30 31 1 20 21
M  V30 32 1 26 28
M  V30 END BOND
M  V30 END CTAB
M  END
>  <Molecule ChEMBL ID>
CHEMBL4090489

>  <Smiles>
CCN(CCOc1ccc(/C=C2\SC(=O)NC2=O)cc1)c1nc2ccccc2s1

>  <IC50_nM>
17000

>  <Assay Description>
Transrepression activity at human PPARgamma expressed in HEK293 cells assessed as inhibition of TNFalpha induced NF-kappaB promoter activity pretreated for 4 hrs followed by TNFalpha stimulation after 3 hrs by luciferase reporter gene assay

$$$$
CHEMBL605520
Actelion Java MolfileCreator 2.0

  0  0  0  0  0  0              0 V3000
M  V30 BEGIN CTAB
M  V30 COUNTS 31 34 0 0 0
M  V30 BEGIN ATOM
M  V30 1 O 6.9282 -4.5 0.0 0
M  V30 2 C 6.9282 -3.5 0.0 0
M  V30 3 O 7.7942 -3.0 0.0 0
M  V30 4 C 6.0621 -3.0 0.0 0 CFG=2
M  V30 5 N 5.1961 -3.5 0.0 0
M  V30 6 C 6.0621 -1.9999 0.0 0
M  V30 7 N 4.2826 -3.0932 0.0 0
M  V30 8 C 5.0916 -4.4945 0.0 0
M  V30 9 C 5.1961 -1.4999 0.0 0
M  V30 10 C 3.6134 -3.8364 0.0 0
M  V30 11 N 4.1134 -4.7024 0.0 0
M  V30 12 C 5.1961 -0.5 0.0 0
M  V30 13 C 4.3301 -1.9999 0.0 0
M  V30 14 C 4.3301 0.0 0.0 0
M  V30 15 C 3.4641 -1.5 0.0 0
M  V30 16 C 3.4641 -0.5 0.0 0
M  V30 17 C 2.598 0.0 0.0 0
M  V30 18 C 1.732 -0.5 0.0 0
M  V30 19 C 0.866 0.0 0.0 0
M  V30 20 C 0.0 -0.5 0.0 0
M  V30 21 N -0.9135 -0.0932 0.0 0
M  V30 22 C -0.1045 -1.4945 0.0 0
M  V30 23 C -1.5826 -0.8364 0.0 0
M  V30 24 O -1.0826 -1.7024 0.0 0
M  V30 25 C 0.6386 -2.1636 0.0 0
M  V30 26 C -2.5771 -0.7318 0.0 0
M  V30 27 C -2.9839 0.1816 0.0 0
M  V30 28 C -3.1649 -1.5408 0.0 0
M  V30 29 C -3.9784 0.2861 0.0 0
M  V30 30 C -4.1595 -1.4363 0.0 0
M  V30 31 C -4.5662 -0.5228 0.0 0
M  V30 END ATOM
M  V30 BEGIN BOND
M  V30 1 2 1 2
M  V30 2 1 2 3
M  V30 3 1 2 4
M  V30 4 1 4 5 CFG=3
M  V30 5 1 4 6
M  V30 6 1 5 7
M  V30 7 1 5 8
M  V30 8 1 6 9
M  V30 9 2 7 10
M  V30 10 2 8 11
M  V30 11 2 9 12
M  V30 12 1 9 13
M  V30 13 1 12 14
M  V30 14 2 13 15
M  V30 15 2 14 16
M  V30 16 1 16 17
M  V30 17 1 17 18
M  V30 18 1 18 19
M  V30 19 1 19 20
M  V30 20 1 20 21
M  V30 21 2 20 22
M  V30 22 2 21 23
M  V30 23 1 22 24
M  V30 24 1 22 25
M  V30 25 1 23 26
M  V30 26 2 26 27
M  V30 27 1 26 28
M  V30 28 1 27 29
M  V30 29 2 28 30
M  V30 30 2 29 31
M  V30 31 1 10 11
M  V30 32 1 15 16
M  V30 33 1 23 24
M  V30 34 1 30 31
M  V30 END BOND
M  V30 BEGIN COLLECTION
M  V30 MDLV30/STEABS ATOMS=(1 4)
M  V30 END COLLECTION
M  V30 END CTAB
M  END
>  <Molecule ChEMBL ID>
CHEMBL605520

>  <Smiles>
Cc1oc(-c2ccccc2)nc1CCCc1ccc(C[C@H](C(=O)O)n2cncn2)cc1

>  <IC50_nM>
18000

>  <Assay Description>
Displacement of [3H2]nTZD3 from GST-tagged human PPARgamma expressed in Escherichia coli by SPA

$$$$
CHEMBL4291468
Actelion Java MolfileCreator 2.0

  0  0  0  0  0  0              0 V3000
M  V30 BEGIN CTAB
M  V30 COUNTS 26 28 0 0 0
M  V30 BEGIN ATOM
M  V30 1 S 5.2531 -3.5877 0.0 0
M  V30 2 C 5.5621 -4.5388 0.0 0
M  V30 3 C 6.0621 -3.0 0.0 0 CFG=2
M  V30 4 O 4.9743 -5.3478 0.0 0
M  V30 5 N 6.5621 -4.5388 0.0 0
M  V30 6 C 6.8711 -3.5877 0.0 0
M  V30 7 C 6.0621 -1.9999 0.0 0
M  V30 8 O 7.8222 -3.2787 0.0 0
M  V30 9 C 5.1961 -1.4999 0.0 0
M  V30 10 C 5.1961 -0.5 0.0 0
M  V30 11 C 4.3301 -1.9999 0.0 0
M  V30 12 C 4.3301 0.0 0.0 0
M  V30 13 C 3.4641 -1.5 0.0 0
M  V30 14 C 3.4641 -0.5 0.0 0
M  V30 15 O 2.598 0.0 0.0 0
M  V30 16 C 1.732 -0.5 0.0 0
M  V30 17 C 0.866 0.0 0.0 0
M  V30 18 O 0.866 1.0 0.0 0
M  V30 19 C 0.0 -0.5 0.0 0
M  V30 20 C -0.866 0.0 0.0 0
M  V30 21 C 0.0 -1.4999 0.0 0
M  V30 22 C -1.732 -0.4999 0.0 0
M  V30 23 C -0.866 -1.9999 0.0 0
M  V30 24 O -2.598 0.0 0.0 0
M  V30 25 C -1.732 -1.4999 0.0 0
M  V30 26 C -3.4641 -0.4999 0.0 0
M  V30 END ATOM
M  V30 BEGIN BOND
M  V30 1 1 1 2
M  V30 2 1 1 3
M  V30 3 2 2 4
M  V30 4 1 2 5
M  V30 5 1 3 6
M  V30 6 1 3 7 CFG=1
M  V30 7 2 6 8
M  V30 8 1 7 9
M  V30 9 2 9 10
M  V30 10 1 9 11
M  V30 11 1 10 12
M  V30 12 2 11 13
M  V30 13 2 12 14
M  V30 14 1 14 15
M  V30 15 1 15 16
M  V30 16 1 16 17
M  V30 17 2 17 18
M  V30 18 1 17 19
M  V30 19 2 19 20
M  V30 20 1 19 21
M  V30 21 1 20 22
M  V30 22 2 21 23
M  V30 23 1 22 24
M  V30 24 2 22 25
M  V30 25 1 24 26
M  V30 26 1 5 6
M  V30 27 1 13 14
M  V30 28 1 23 25
M  V30 END BOND
M  V30 BEGIN COLLECTION
M  V30 MDLV30/STERAC1 ATOMS=(1 3)
M  V30 END COLLECTION
M  V30 END CTAB
M  END
>  <Molecule ChEMBL ID>
CHEMBL4291468

>  <Smiles>
COc1cccc(C(=O)COc2ccc(CC3SC(=O)NC3=O)cc2)c1

>  <IC50_nM>
18140

>  <Assay Description>
Competitive displacement of fluorescently labelled PPAR tracer ligand from GST-tagged human PPARgamma ligand binding domain after 1 hr in dark by TR-FRET competitive binding assay

$$$$
CHEMBL513911
Actelion Java MolfileCreator 2.0

  0  0  0  0  0  0              0 V3000
M  V30 BEGIN CTAB
M  V30 COUNTS 23 24 0 0 0
M  V30 BEGIN ATOM
M  V30 1 O 5.1961 1.4999 0.0 0
M  V30 2 C 4.3301 0.9999 0.0 0
M  V30 3 O 3.4641 1.5 0.0 0
M  V30 4 C 4.3301 0.0 0.0 0 CFG=1
M  V30 5 N 3.4641 -0.5 0.0 0
M  V30 6 C 5.1961 -0.5 0.0 0
M  V30 7 C 2.598 0.0 0.0 0
M  V30 8 C 6.0621 0.0 0.0 0
M  V30 9 O 2.598 1.0 0.0 0
M  V30 10 C 1.732 -0.5 0.0 0 CFG=1
M  V30 11 O 6.9282 -0.5 0.0 0
M  V30 12 N 6.0621 0.9999 0.0 0
M  V30 13 N 1.732 -1.5 0.0 0
M  V30 14 C 0.866 0.0 0.0 0
M  V30 15 C 0.0 -0.5 0.0 0
M  V30 16 C -0.9135 -0.0932 0.0 0
M  V30 17 C -0.1045 -1.4945 0.0 0
M  V30 18 C -1.5826 -0.8364 0.0 0
M  V30 19 C -1.2225 0.8577 0.0 0
M  V30 20 N -1.0826 -1.7024 0.0 0
M  V30 21 C -2.5608 -0.6284 0.0 0
M  V30 22 C -2.2007 1.0657 0.0 0
M  V30 23 C -2.8698 0.3225 0.0 0
M  V30 END ATOM
M  V30 BEGIN BOND
M  V30 1 2 1 2
M  V30 2 1 2 3
M  V30 3 1 2 4
M  V30 4 1 4 5 CFG=3
M  V30 5 1 4 6
M  V30 6 1 5 7
M  V30 7 1 6 8
M  V30 8 2 7 9
M  V30 9 1 7 10
M  V30 10 2 8 11
M  V30 11 1 8 12
M  V30 12 1 10 13 CFG=1
M  V30 13 1 10 14
M  V30 14 1 14 15
M  V30 15 1 15 16
M  V30 16 2 15 17
M  V30 17 2 16 18
M  V30 18 1 16 19
M  V30 19 1 17 20
M  V30 20 1 18 21
M  V30 21 2 19 22
M  V30 22 2 21 23
M  V30 23 1 18 20
M  V30 24 1 22 23
M  V30 END BOND
M  V30 BEGIN COLLECTION
M  V30 MDLV30/STEABS ATOMS=(2 4 10)
M  V30 END COLLECTION
M  V30 END CTAB
M  END
>  <Molecule ChEMBL ID>
CHEMBL513911

>  <Smiles>
NC(=O)C[C@H](NC(=O)[C@@H](N)Cc1c[nH]c2ccccc12)C(=O)O

>  <IC50_nM>
18400

>  <Assay Description>
Antagonist activity at human PPARgamma receptor expressed in Saccharomyces cerevisiae AH109 co-transfected with mouse CBP assessed as inhibition of rosiglitazone-induced LBD-CBP interaction by alpha-galactosidase based yeast two hybrid assay

$$$$
CHEMBL476173
Actelion Java MolfileCreator 2.0

  0  0  0  0  0  0              0 V3000
M  V30 BEGIN CTAB
M  V30 COUNTS 24 25 0 0 0
M  V30 BEGIN ATOM
M  V30 1 O 5.1961 1.4999 0.0 0
M  V30 2 C 4.3301 0.9999 0.0 0
M  V30 3 O 3.4641 1.5 0.0 0
M  V30 4 C 4.3301 0.0 0.0 0 CFG=1
M  V30 5 N 3.4641 -0.5 0.0 0
M  V30 6 C 5.1961 -0.5 0.0 0
M  V30 7 C 2.598 0.0 0.0 0
M  V30 8 C 6.0621 0.0 0.0 0
M  V30 9 O 2.598 1.0 0.0 0
M  V30 10 C 1.732 -0.5 0.0 0 CFG=1
M  V30 11 C 6.9282 -0.5 0.0 0
M  V30 12 N 1.732 -1.5 0.0 0
M  V30 13 C 0.866 0.0 0.0 0
M  V30 14 O 7.7942 0.0 0.0 0
M  V30 15 N 6.9282 -1.4999 0.0 0
M  V30 16 C 0.0 -0.5 0.0 0
M  V30 17 C -0.9135 -0.0932 0.0 0
M  V30 18 C -0.1045 -1.4945 0.0 0
M  V30 19 C -1.5826 -0.8364 0.0 0
M  V30 20 C -1.2225 0.8577 0.0 0
M  V30 21 N -1.0826 -1.7024 0.0 0
M  V30 22 C -2.5608 -0.6284 0.0 0
M  V30 23 C -2.2007 1.0657 0.0 0
M  V30 24 C -2.8698 0.3225 0.0 0
M  V30 END ATOM
M  V30 BEGIN BOND
M  V30 1 2 1 2
M  V30 2 1 2 3
M  V30 3 1 2 4
M  V30 4 1 4 5 CFG=3
M  V30 5 1 4 6
M  V30 6 1 5 7
M  V30 7 1 6 8
M  V30 8 2 7 9
M  V30 9 1 7 10
M  V30 10 1 8 11
M  V30 11 1 10 12 CFG=1
M  V30 12 1 10 13
M  V30 13 2 11 14
M  V30 14 1 11 15
M  V30 15 1 13 16
M  V30 16 1 16 17
M  V30 17 2 16 18
M  V30 18 2 17 19
M  V30 19 1 17 20
M  V30 20 1 18 21
M  V30 21 1 19 22
M  V30 22 2 20 23
M  V30 23 2 22 24
M  V30 24 1 19 21
M  V30 25 1 23 24
M  V30 END BOND
M  V30 BEGIN COLLECTION
M  V30 MDLV30/STEABS ATOMS=(2 4 10)
M  V30 END COLLECTION
M  V30 END CTAB
M  END
>  <Molecule ChEMBL ID>
CHEMBL476173

>  <Smiles>
NC(=O)CC[C@H](NC(=O)[C@@H](N)Cc1c[nH]c2ccccc12)C(=O)O

>  <IC50_nM>
18700

>  <Assay Description>
Antagonist activity at human PPARgamma receptor expressed in Saccharomyces cerevisiae AH109 co-transfected with mouse CBP assessed as inhibition of rosiglitazone-induced LBD-CBP interaction by alpha-galactosidase based yeast two hybrid assay

$$$$
CHEMBL5205628
Actelion Java MolfileCreator 2.0

  0  0  0  0  0  0              0 V3000
M  V30 BEGIN CTAB
M  V30 COUNTS 33 36 0 0 0
M  V30 BEGIN ATOM
M  V30 1 Cl 2.0253 -1.7449 0.0 0
M  V30 2 C 2.9763 -2.054 0.0 0
M  V30 3 C 3.7195 -1.3848 0.0 0
M  V30 4 C 3.1843 -3.0321 0.0 0
M  V30 5 C 4.6705 -1.6939 0.0 0
M  V30 6 C 3.5116 -0.4067 0.0 0
M  V30 7 C 4.1353 -3.3411 0.0 0
M  V30 8 C 4.8785 -2.672 0.0 0
M  V30 9 C 5.4137 -1.0247 0.0 0
M  V30 10 N 4.1807 0.3364 0.0 0
M  V30 11 C 2.598 0.0 0.0 0
M  V30 12 F 6.0828 -1.7679 0.0 0
M  V30 13 F 6.1568 -0.3556 0.0 0
M  V30 14 F 4.7446 -0.2816 0.0 0
M  V30 15 O 3.6807 1.2024 0.0 0
M  V30 16 C 2.7026 0.9945 0.0 0
M  V30 17 C 1.732 -0.5 0.0 0
M  V30 18 C 1.9594 1.6636 0.0 0
M  V30 19 O 0.866 0.0 0.0 0
M  V30 20 C 2.0639 2.6581 0.0 0
M  V30 21 C 0.9813 1.4557 0.0 0
M  V30 22 C 0.0 -0.5 0.0 0
M  V30 23 N 1.1504 3.0649 0.0 0
M  V30 24 C 0.4813 2.3217 0.0 0
M  V30 25 C -0.866 0.0 0.0 0
M  V30 26 C 0.0 -1.4999 0.0 0
M  V30 27 C -0.5132 2.4262 0.0 0
M  V30 28 C -1.732 -0.4999 0.0 0
M  V30 29 C -0.866 -1.9999 0.0 0
M  V30 30 C -1.732 -1.4999 0.0 0
M  V30 31 C -2.598 -1.9999 0.0 0
M  V30 32 O -3.4641 -1.4999 0.0 0
M  V30 33 O -2.598 -2.9999 0.0 0
M  V30 END ATOM
M  V30 BEGIN BOND
M  V30 1 1 1 2
M  V30 2 2 2 3
M  V30 3 1 2 4
M  V30 4 1 3 5
M  V30 5 1 3 6
M  V30 6 2 4 7
M  V30 7 2 5 8
M  V30 8 1 5 9
M  V30 9 2 6 10
M  V30 10 1 6 11
M  V30 11 1 9 12
M  V30 12 1 9 13
M  V30 13 1 9 14
M  V30 14 1 10 15
M  V30 15 2 11 16
M  V30 16 1 11 17
M  V30 17 1 16 18
M  V30 18 1 17 19
M  V30 19 2 18 20
M  V30 20 1 18 21
M  V30 21 1 19 22
M  V30 22 1 20 23
M  V30 23 2 21 24
M  V30 24 2 22 25
M  V30 25 1 22 26
M  V30 26 1 24 27
M  V30 27 1 25 28
M  V30 28 2 26 29
M  V30 29 2 28 30
M  V30 30 1 30 31
M  V30 31 2 31 32
M  V30 32 1 31 33
M  V30 33 1 7 8
M  V30 34 1 15 16
M  V30 35 1 23 24
M  V30 36 1 29 30
M  V30 END BOND
M  V30 END CTAB
M  END
>  <Molecule ChEMBL ID>
CHEMBL5205628

>  <Smiles>
Cc1cc(-c2onc(-c3c(Cl)cccc3C(F)(F)F)c2COc2ccc(C(=O)O)cc2)c[nH]1

>  <IC50_nM>
19000

>  <Assay Description>
Inverse agonist activity at His6-tagged PPARgamma LBD (unknown origin) assessed as N-terminal biotinylated PGC1a coactivator peptide recruitment in presence of rosiglitazone by TR-FRET assay

$$$$
CHEMBL253952
Actelion Java MolfileCreator 2.0

  0  0  0  0  0  0              0 V3000
M  V30 BEGIN CTAB
M  V30 COUNTS 39 42 0 0 0
M  V30 BEGIN ATOM
M  V30 1 O 3.4641 -1.5 0.0 0
M  V30 2 C 3.4641 -0.5 0.0 0
M  V30 3 O 4.3301 0.0 0.0 0
M  V30 4 N 2.598 0.0 0.0 0
M  V30 5 C 5.1961 -0.5 0.0 0
M  V30 6 C 2.598 1.0 0.0 0
M  V30 7 C 1.732 -0.5 0.0 0
M  V30 8 C 5.1961 -1.5 0.0 0
M  V30 9 C 6.0621 0.0 0.0 0
M  V30 10 C 1.732 1.5 0.0 0
M  V30 11 C 1.732 -1.5 0.0 0
M  V30 12 C 6.0621 -2.0 0.0 0
M  V30 13 C 6.9282 -0.5 0.0 0
M  V30 14 C 1.732 2.5 0.0 0
M  V30 15 C 0.866 1.0 0.0 0
M  V30 16 O 2.598 -2.0 0.0 0
M  V30 17 O 0.866 -2.0 0.0 0
M  V30 18 C 6.9282 -1.5 0.0 0
M  V30 19 C 0.866 3.0 0.0 0
M  V30 20 C 0.0 1.5 0.0 0
M  V30 21 O 7.7942 -2.0 0.0 0
M  V30 22 C 0.0 2.5 0.0 0
M  V30 23 C 8.6602 -1.5 0.0 0
M  V30 24 O -0.866 3.0 0.0 0
M  V30 25 C -1.732 2.5 0.0 0
M  V30 26 C -2.598 3.0 0.0 0
M  V30 27 C -3.4641 2.5 0.0 0
M  V30 28 N -4.3776 2.9067 0.0 0
M  V30 29 C -3.5686 1.5054 0.0 0
M  V30 30 C -5.0467 2.1635 0.0 0
M  V30 31 O -4.5467 1.2975 0.0 0
M  V30 32 C -2.8254 0.8363 0.0 0
M  V30 33 C -6.0412 2.2681 0.0 0
M  V30 34 C -6.448 3.1816 0.0 0
M  V30 35 C -6.629 1.4591 0.0 0
M  V30 36 C -7.4425 3.2861 0.0 0
M  V30 37 C -7.6236 1.5636 0.0 0
M  V30 38 C -8.0303 2.4771 0.0 0
M  V30 39 O -9.0248 2.5817 0.0 0
M  V30 END ATOM
M  V30 BEGIN BOND
M  V30 1 2 1 2
M  V30 2 1 2 3
M  V30 3 1 2 4
M  V30 4 1 3 5
M  V30 5 1 4 6
M  V30 6 1 4 7
M  V30 7 2 5 8
M  V30 8 1 5 9
M  V30 9 1 6 10
M  V30 10 1 7 11
M  V30 11 1 8 12
M  V30 12 2 9 13
M  V30 13 2 10 14
M  V30 14 1 10 15
M  V30 15 2 11 16
M  V30 16 1 11 17
M  V30 17 2 12 18
M  V30 18 1 14 19
M  V30 19 2 15 20
M  V30 20 1 18 21
M  V30 21 2 19 22
M  V30 22 1 21 23
M  V30 23 1 22 24
M  V30 24 1 24 25
M  V30 25 1 25 26
M  V30 26 1 26 27
M  V30 27 1 27 28
M  V30 28 2 27 29
M  V30 29 2 28 30
M  V30 30 1 29 31
M  V30 31 1 29 32
M  V30 32 1 30 33
M  V30 33 2 33 34
M  V30 34 1 33 35
M  V30 35 1 34 36
M  V30 36 2 35 37
M  V30 37 2 36 38
M  V30 38 1 38 39
M  V30 39 1 13 18
M  V30 40 1 20 22
M  V30 41 1 30 31
M  V30 42 1 37 38
M  V30 END BOND
M  V30 END CTAB
M  END
>  <Molecule ChEMBL ID>
CHEMBL253952

>  <Smiles>
COc1ccc(OC(=O)N(CC(=O)O)Cc2ccc(OCCc3nc(-c4ccc(O)cc4)oc3C)cc2)cc1

>  <IC50_nM>
19800

>  <Assay Description>
Agonist activity at PPAR gamma in human HEK cells by transactivation assay

$$$$
CHEMBL491237
Actelion Java MolfileCreator 2.0

  0  0  0  0  0  0              0 V3000
M  V30 BEGIN CTAB
M  V30 COUNTS 35 39 0 0 0
M  V30 BEGIN ATOM
M  V30 1 O 6.0621 1.0 0.0 0
M  V30 2 C 5.1961 1.5 0.0 0
M  V30 3 O 5.1961 2.5 0.0 0
M  V30 4 C 4.3301 1.0 0.0 0
M  V30 5 C 3.4641 1.5 0.0 0
M  V30 6 C 4.3301 0.0 0.0 0
M  V30 7 C 2.598 0.9999 0.0 0
M  V30 8 C 3.4641 -0.4999 0.0 0
M  V30 9 C 2.598 0.0 0.0 0
M  V30 10 C 1.732 -0.5 0.0 0
M  V30 11 O 0.866 0.0 0.0 0
M  V30 12 C 0.0 -0.5 0.0 0
M  V30 13 C -0.866 0.0 0.0 0
M  V30 14 C 0.0 -1.4999 0.0 0
M  V30 15 C -1.732 -0.4999 0.0 0
M  V30 16 C -0.866 1.0 0.0 0
M  V30 17 C -0.866 -1.9999 0.0 0
M  V30 18 C -1.732 -1.4999 0.0 0
M  V30 19 C -2.598 0.0 0.0 0
M  V30 20 N 0.0 1.5 0.0 0
M  V30 21 C -2.598 -1.9999 0.0 0
M  V30 22 C -3.4641 -0.4999 0.0 0
M  V30 23 C 0.0 2.5 0.0 0
M  V30 24 C -3.4641 -1.4999 0.0 0
M  V30 25 C 0.866 2.9999 0.0 0
M  V30 26 C -0.866 3.0 0.0 0
M  V30 27 C 0.866 3.9999 0.0 0
M  V30 28 C -0.866 4.0 0.0 0
M  V30 29 C 0.0 4.5 0.0 0
M  V30 30 N 0.0 5.5 0.0 0
M  V30 31 C 0.866 5.9999 0.0 0
M  V30 32 C -0.866 6.0 0.0 0
M  V30 33 C 0.866 6.9999 0.0 0
M  V30 34 C -0.866 7.0 0.0 0
M  V30 35 O 0.0 7.5 0.0 0
M  V30 END ATOM
M  V30 BEGIN BOND
M  V30 1 2 1 2
M  V30 2 1 2 3
M  V30 3 1 2 4
M  V30 4 2 4 5
M  V30 5 1 4 6
M  V30 6 1 5 7
M  V30 7 2 6 8
M  V30 8 2 7 9
M  V30 9 1 9 10
M  V30 10 1 10 11
M  V30 11 1 11 12
M  V30 12 2 12 13
M  V30 13 1 12 14
M  V30 14 1 13 15
M  V30 15 1 13 16
M  V30 16 2 14 17
M  V30 17 1 15 18
M  V30 18 2 15 19
M  V30 19 2 16 20
M  V30 20 2 18 21
M  V30 21 1 19 22
M  V30 22 1 20 23
M  V30 23 1 21 24
M  V30 24 2 23 25
M  V30 25 1 23 26
M  V30 26 1 25 27
M  V30 27 2 26 28
M  V30 28 2 27 29
M  V30 29 1 29 30
M  V30 30 1 30 31
M  V30 31 1 30 32
M  V30 32 1 31 33
M  V30 33 1 32 34
M  V30 34 1 33 35
M  V30 35 1 8 9
M  V30 36 1 17 18
M  V30 37 2 22 24
M  V30 38 1 28 29
M  V30 39 1 34 35
M  V30 END BOND
M  V30 END CTAB
M  END
>  <Molecule ChEMBL ID>
CHEMBL491237

>  <Smiles>
O=C(O)c1ccc(COc2ccc3ccccc3c2/C=N/c2ccc(N3CCOCC3)cc2)cc1

>  <IC50_nM>
19998.6

>  <Assay Description>
Agonist activity at PPARgamma

$$$$
CHEMBL339359
Actelion Java MolfileCreator 2.0

  0  0  0  0  0  0              0 V3000
M  V30 BEGIN CTAB
M  V30 COUNTS 28 31 0 0 0
M  V30 BEGIN ATOM
M  V30 1 S 4.4346 0.9945 0.0 0
M  V30 2 C 4.3301 0.0 0.0 0
M  V30 3 C 5.4128 1.2024 0.0 0
M  V30 4 N 5.2436 -0.4067 0.0 0
M  V30 5 N 3.4641 -0.5 0.0 0
M  V30 6 C 5.9128 0.3364 0.0 0
M  V30 7 C 5.9128 2.0684 0.0 0
M  V30 8 C 2.598 0.0 0.0 0
M  V30 9 C 3.4641 -1.5 0.0 0
M  V30 10 C 6.9128 0.3364 0.0 0
M  V30 11 C 6.9128 2.0684 0.0 0
M  V30 12 C 1.732 -0.5 0.0 0
M  V30 13 C 7.4128 1.2024 0.0 0
M  V30 14 O 0.866 0.0 0.0 0
M  V30 15 C 0.0 -0.5 0.0 0
M  V30 16 C -0.866 0.0 0.0 0
M  V30 17 C 0.0 -1.4999 0.0 0
M  V30 18 C -1.732 -0.4999 0.0 0
M  V30 19 C -0.866 -1.9999 0.0 0
M  V30 20 C -1.732 -1.4999 0.0 0
M  V30 21 C -2.598 -1.9999 0.0 0
M  V30 22 C -2.598 -2.9999 0.0 0 CFG=2
M  V30 23 S -3.407 -3.5877 0.0 0
M  V30 24 C -1.789 -3.5877 0.0 0
M  V30 25 C -3.098 -4.5388 0.0 0
M  V30 26 O -0.838 -3.2787 0.0 0
M  V30 27 N -2.098 -4.5388 0.0 0
M  V30 28 O -3.6858 -5.3478 0.0 0
M  V30 END ATOM
M  V30 BEGIN BOND
M  V30 1 1 1 2
M  V30 2 1 1 3
M  V30 3 2 2 4
M  V30 4 1 2 5
M  V30 5 2 3 6
M  V30 6 1 3 7
M  V30 7 1 5 8
M  V30 8 1 5 9
M  V30 9 1 6 10
M  V30 10 2 7 11
M  V30 11 1 8 12
M  V30 12 2 10 13
M  V30 13 1 12 14
M  V30 14 1 14 15
M  V30 15 2 15 16
M  V30 16 1 15 17
M  V30 17 1 16 18
M  V30 18 2 17 19
M  V30 19 2 18 20
M  V30 20 1 20 21
M  V30 21 1 22 21 CFG=1
M  V30 22 1 22 23
M  V30 23 1 22 24
M  V30 24 1 23 25
M  V30 25 2 24 26
M  V30 26 1 24 27
M  V30 27 2 25 28
M  V30 28 1 4 6
M  V30 29 1 11 13
M  V30 30 1 19 20
M  V30 31 1 25 27
M  V30 END BOND
M  V30 BEGIN COLLECTION
M  V30 MDLV30/STERAC1 ATOMS=(1 22)
M  V30 END COLLECTION
M  V30 END CTAB
M  END
>  <Molecule ChEMBL ID>
CHEMBL339359

>  <Smiles>
CN(CCOc1ccc(CC2SC(=O)NC2=O)cc1)c1nc2ccccc2s1

>  <IC50_nM>
20000

>  <Assay Description>
Transrepression activity at human PPARgamma expressed in HEK293 cells assessed as inhibition of TNFalpha induced NF-kappaB promoter activity pretreated for 4 hrs followed by TNFalpha stimulation after 3 hrs by luciferase reporter gene assay

$$$$
CHEMBL4095771
Actelion Java MolfileCreator 2.0

  0  0  0  0  0  0              0 V3000
M  V30 BEGIN CTAB
M  V30 COUNTS 30 33 0 0 0
M  V30 BEGIN ATOM
M  V30 1 S 4.2731 -2.0877 0.0 0
M  V30 2 C 3.4641 -1.5 0.0 0
M  V30 3 C 3.9641 -3.0388 0.0 0
M  V30 4 N 2.655 -2.0877 0.0 0
M  V30 5 N 3.4641 -0.5 0.0 0
M  V30 6 C 2.9641 -3.0388 0.0 0
M  V30 7 C 4.4641 -3.9048 0.0 0
M  V30 8 C 4.3301 0.0 0.0 0
M  V30 9 C 2.598 0.0 0.0 0
M  V30 10 C 2.4641 -3.9048 0.0 0
M  V30 11 C 3.9641 -4.7708 0.0 0
M  V30 12 C 5.1961 -0.5 0.0 0
M  V30 13 C 4.3301 1.0 0.0 0
M  V30 14 C 1.732 -0.5 0.0 0
M  V30 15 C 2.9641 -4.7708 0.0 0
M  V30 16 O 0.866 0.0 0.0 0
M  V30 17 C 0.0 -0.5 0.0 0
M  V30 18 C -0.866 0.0 0.0 0
M  V30 19 C 0.0 -1.4999 0.0 0
M  V30 20 C -1.732 -0.4999 0.0 0
M  V30 21 C -0.866 -1.9999 0.0 0
M  V30 22 C -1.732 -1.4999 0.0 0
M  V30 23 C -2.598 -1.9999 0.0 0
M  V30 24 C -2.598 -2.9999 0.0 0 CFG=2
M  V30 25 S -3.407 -3.5877 0.0 0
M  V30 26 C -1.789 -3.5877 0.0 0
M  V30 27 C -3.098 -4.5388 0.0 0
M  V30 28 O -0.838 -3.2787 0.0 0
M  V30 29 N -2.098 -4.5388 0.0 0
M  V30 30 O -3.6858 -5.3478 0.0 0
M  V30 END ATOM
M  V30 BEGIN BOND
M  V30 1 1 1 2
M  V30 2 1 1 3
M  V30 3 2 2 4
M  V30 4 1 2 5
M  V30 5 2 3 6
M  V30 6 1 3 7
M  V30 7 1 5 8
M  V30 8 1 5 9
M  V30 9 1 6 10
M  V30 10 2 7 11
M  V30 11 1 8 12
M  V30 12 1 8 13
M  V30 13 1 9 14
M  V30 14 2 10 15
M  V30 15 1 14 16
M  V30 16 1 16 17
M  V30 17 2 17 18
M  V30 18 1 17 19
M  V30 19 1 18 20
M  V30 20 2 19 21
M  V30 21 2 20 22
M  V30 22 1 22 23
M  V30 23 1 24 23 CFG=1
M  V30 24 1 24 25
M  V30 25 1 24 26
M  V30 26 1 25 27
M  V30 27 2 26 28
M  V30 28 1 26 29
M  V30 29 2 27 30
M  V30 30 1 4 6
M  V30 31 1 11 15
M  V30 32 1 21 22
M  V30 33 1 27 29
M  V30 END BOND
M  V30 BEGIN COLLECTION
M  V30 MDLV30/STERAC1 ATOMS=(1 24)
M  V30 END COLLECTION
M  V30 END CTAB
M  END
>  <Molecule ChEMBL ID>
CHEMBL4095771

>  <Smiles>
CC(C)N(CCOc1ccc(CC2SC(=O)NC2=O)cc1)c1nc2ccccc2s1

>  <IC50_nM>
20000

>  <Assay Description>
Transrepression activity at human PPARgamma expressed in HEK293 cells assessed as inhibition of TNFalpha induced NF-kappaB promoter activity pretreated for 4 hrs followed by TNFalpha stimulation after 3 hrs by luciferase reporter gene assay

$$$$
CHEMBL444373
Actelion Java MolfileCreator 2.0

  0  0  0  0  0  0              0 V3000
M  V30 BEGIN CTAB
M  V30 COUNTS 24 25 0 0 0
M  V30 BEGIN ATOM
M  V30 1 O 3.4641 -1.5 0.0 0
M  V30 2 C 3.4641 -0.5 0.0 0
M  V30 3 O 4.3301 0.0 0.0 0
M  V30 4 N 2.598 0.0 0.0 0
M  V30 5 C 5.1961 -0.5 0.0 0
M  V30 6 C 2.598 1.0 0.0 0
M  V30 7 C 1.732 -0.5 0.0 0
M  V30 8 C 5.1961 -1.5 0.0 0
M  V30 9 C 6.0621 0.0 0.0 0
M  V30 10 C 1.732 1.5 0.0 0
M  V30 11 C 1.732 -1.5 0.0 0
M  V30 12 C 6.0621 -2.0 0.0 0
M  V30 13 C 6.9282 -0.5 0.0 0
M  V30 14 C 1.732 2.5 0.0 0
M  V30 15 C 0.866 1.0 0.0 0
M  V30 16 O 2.598 -2.0 0.0 0
M  V30 17 O 0.866 -2.0 0.0 0
M  V30 18 C 6.9282 -1.5 0.0 0
M  V30 19 C 0.866 3.0 0.0 0
M  V30 20 C 0.0 1.5 0.0 0
M  V30 21 O 7.7942 -2.0 0.0 0
M  V30 22 C 0.0 2.5 0.0 0
M  V30 23 C 8.6602 -1.5 0.0 0
M  V30 24 O -0.866 3.0 0.0 0
M  V30 END ATOM
M  V30 BEGIN BOND
M  V30 1 2 1 2
M  V30 2 1 2 3
M  V30 3 1 2 4
M  V30 4 1 3 5
M  V30 5 1 4 6
M  V30 6 1 4 7
M  V30 7 2 5 8
M  V30 8 1 5 9
M  V30 9 1 6 10
M  V30 10 1 7 11
M  V30 11 1 8 12
M  V30 12 2 9 13
M  V30 13 2 10 14
M  V30 14 1 10 15
M  V30 15 2 11 16
M  V30 16 1 11 17
M  V30 17 2 12 18
M  V30 18 1 14 19
M  V30 19 2 15 20
M  V30 20 1 18 21
M  V30 21 2 19 22
M  V30 22 1 21 23
M  V30 23 1 22 24
M  V30 24 1 13 18
M  V30 25 1 20 22
M  V30 END BOND
M  V30 END CTAB
M  END
>  <Molecule ChEMBL ID>
CHEMBL444373

>  <Smiles>
COc1ccc(OC(=O)N(CC(=O)O)Cc2ccc(O)cc2)cc1

>  <IC50_nM>
20000

>  <Assay Description>
Agonist activity at PPAR gamma in human HEK cells by transactivation assay

$$$$
CHEMBL491237
Actelion Java MolfileCreator 2.0

  0  0  0  0  0  0              0 V3000
M  V30 BEGIN CTAB
M  V30 COUNTS 35 39 0 0 0
M  V30 BEGIN ATOM
M  V30 1 O 6.0621 1.0 0.0 0
M  V30 2 C 5.1961 1.5 0.0 0
M  V30 3 O 5.1961 2.5 0.0 0
M  V30 4 C 4.3301 1.0 0.0 0
M  V30 5 C 3.4641 1.5 0.0 0
M  V30 6 C 4.3301 0.0 0.0 0
M  V30 7 C 2.598 0.9999 0.0 0
M  V30 8 C 3.4641 -0.4999 0.0 0
M  V30 9 C 2.598 0.0 0.0 0
M  V30 10 C 1.732 -0.5 0.0 0
M  V30 11 O 0.866 0.0 0.0 0
M  V30 12 C 0.0 -0.5 0.0 0
M  V30 13 C -0.866 0.0 0.0 0
M  V30 14 C 0.0 -1.4999 0.0 0
M  V30 15 C -1.732 -0.4999 0.0 0
M  V30 16 C -0.866 1.0 0.0 0
M  V30 17 C -0.866 -1.9999 0.0 0
M  V30 18 C -1.732 -1.4999 0.0 0
M  V30 19 C -2.598 0.0 0.0 0
M  V30 20 N 0.0 1.5 0.0 0
M  V30 21 C -2.598 -1.9999 0.0 0
M  V30 22 C -3.4641 -0.4999 0.0 0
M  V30 23 C 0.0 2.5 0.0 0
M  V30 24 C -3.4641 -1.4999 0.0 0
M  V30 25 C 0.866 2.9999 0.0 0
M  V30 26 C -0.866 3.0 0.0 0
M  V30 27 C 0.866 3.9999 0.0 0
M  V30 28 C -0.866 4.0 0.0 0
M  V30 29 C 0.0 4.5 0.0 0
M  V30 30 N 0.0 5.5 0.0 0
M  V30 31 C 0.866 5.9999 0.0 0
M  V30 32 C -0.866 6.0 0.0 0
M  V30 33 C 0.866 6.9999 0.0 0
M  V30 34 C -0.866 7.0 0.0 0
M  V30 35 O 0.0 7.5 0.0 0
M  V30 END ATOM
M  V30 BEGIN BOND
M  V30 1 2 1 2
M  V30 2 1 2 3
M  V30 3 1 2 4
M  V30 4 2 4 5
M  V30 5 1 4 6
M  V30 6 1 5 7
M  V30 7 2 6 8
M  V30 8 2 7 9
M  V30 9 1 9 10
M  V30 10 1 10 11
M  V30 11 1 11 12
M  V30 12 2 12 13
M  V30 13 1 12 14
M  V30 14 1 13 15
M  V30 15 1 13 16
M  V30 16 2 14 17
M  V30 17 1 15 18
M  V30 18 2 15 19
M  V30 19 2 16 20
M  V30 20 2 18 21
M  V30 21 1 19 22
M  V30 22 1 20 23
M  V30 23 1 21 24
M  V30 24 2 23 25
M  V30 25 1 23 26
M  V30 26 1 25 27
M  V30 27 2 26 28
M  V30 28 2 27 29
M  V30 29 1 29 30
M  V30 30 1 30 31
M  V30 31 1 30 32
M  V30 32 1 31 33
M  V30 33 1 32 34
M  V30 34 1 33 35
M  V30 35 1 8 9
M  V30 36 1 17 18
M  V30 37 2 22 24
M  V30 38 1 28 29
M  V30 39 1 34 35
M  V30 END BOND
M  V30 END CTAB
M  END
>  <Molecule ChEMBL ID>
CHEMBL491237

>  <Smiles>
O=C(O)c1ccc(COc2ccc3ccccc3c2/C=N/c2ccc(N3CCOCC3)cc2)cc1

>  <IC50_nM>
20000

>  <Assay Description>
Displacement of fluorescent pan PPAR agonist form GST-tagged human PPARgamma ligand binding domain by FRET assay

$$$$
CHEMBL5182239
Actelion Java MolfileCreator 2.0

  0  0  0  0  0  0              0 V3000
M  V30 BEGIN CTAB
M  V30 COUNTS 33 36 0 0 0
M  V30 BEGIN ATOM
M  V30 1 Cl 2.0253 -1.7449 0.0 0
M  V30 2 C 2.9763 -2.054 0.0 0
M  V30 3 C 3.7195 -1.3848 0.0 0
M  V30 4 C 3.1843 -3.0321 0.0 0
M  V30 5 C 4.6705 -1.6939 0.0 0
M  V30 6 C 3.5116 -0.4067 0.0 0
M  V30 7 C 4.1353 -3.3411 0.0 0
M  V30 8 C 4.8785 -2.672 0.0 0
M  V30 9 C 5.4137 -1.0247 0.0 0
M  V30 10 N 4.1807 0.3364 0.0 0
M  V30 11 C 2.598 0.0 0.0 0
M  V30 12 F 6.0828 -1.7679 0.0 0
M  V30 13 F 6.1568 -0.3556 0.0 0
M  V30 14 F 4.7446 -0.2816 0.0 0
M  V30 15 O 3.6807 1.2024 0.0 0
M  V30 16 C 2.7026 0.9945 0.0 0
M  V30 17 C 1.732 -0.5 0.0 0
M  V30 18 C 1.9594 1.6636 0.0 0
M  V30 19 O 0.866 0.0 0.0 0
M  V30 20 C 2.0639 2.6581 0.0 0
M  V30 21 C 0.9813 1.4557 0.0 0
M  V30 22 C 0.0 -0.5 0.0 0
M  V30 23 N 1.1504 3.0649 0.0 0
M  V30 24 C 0.4813 2.3217 0.0 0
M  V30 25 C -0.866 0.0 0.0 0
M  V30 26 C 0.0 -1.4999 0.0 0
M  V30 27 C 0.9425 4.043 0.0 0
M  V30 28 C -1.732 -0.4999 0.0 0
M  V30 29 C -0.866 -1.9999 0.0 0
M  V30 30 C -1.732 -1.4999 0.0 0
M  V30 31 C -2.598 -1.9999 0.0 0
M  V30 32 O -3.4641 -1.4999 0.0 0
M  V30 33 O -2.598 -2.9999 0.0 0
M  V30 END ATOM
M  V30 BEGIN BOND
M  V30 1 1 1 2
M  V30 2 2 2 3
M  V30 3 1 2 4
M  V30 4 1 3 5
M  V30 5 1 3 6
M  V30 6 2 4 7
M  V30 7 2 5 8
M  V30 8 1 5 9
M  V30 9 2 6 10
M  V30 10 1 6 11
M  V30 11 1 9 12
M  V30 12 1 9 13
M  V30 13 1 9 14
M  V30 14 1 10 15
M  V30 15 2 11 16
M  V30 16 1 11 17
M  V30 17 1 16 18
M  V30 18 1 17 19
M  V30 19 2 18 20
M  V30 20 1 18 21
M  V30 21 1 19 22
M  V30 22 1 20 23
M  V30 23 2 21 24
M  V30 24 2 22 25
M  V30 25 1 22 26
M  V30 26 1 23 27
M  V30 27 1 25 28
M  V30 28 2 26 29
M  V30 29 2 28 30
M  V30 30 1 30 31
M  V30 31 2 31 32
M  V30 32 1 31 33
M  V30 33 1 7 8
M  V30 34 1 15 16
M  V30 35 1 23 24
M  V30 36 1 29 30
M  V30 END BOND
M  V30 END CTAB
M  END
>  <Molecule ChEMBL ID>
CHEMBL5182239

>  <Smiles>
Cn1ccc(-c2onc(-c3c(Cl)cccc3C(F)(F)F)c2COc2ccc(C(=O)O)cc2)c1

>  <IC50_nM>
20000

>  <Assay Description>
Inverse agonist activity at His6-tagged PPARgamma LBD (unknown origin) assessed as N-terminal biotinylated PGC1a coactivator peptide recruitment in presence of rosiglitazone by TR-FRET assay

$$$$
CHEMBL4095614
Actelion Java MolfileCreator 2.0

  0  0  0  0  0  0              0 V3000
M  V30 BEGIN CTAB
M  V30 COUNTS 26 28 0 0 0
M  V30 BEGIN ATOM
M  V30 1 S 10.4778 -5.3816 0.0 0
M  V30 2 C 10.9413 -6.8082 0.0 0
M  V30 3 C 11.6913 -4.5 0.0 0 CFG=2
M  V30 4 O 10.0596 -8.0217 0.0 0
M  V30 5 N 12.4413 -6.8082 0.0 0
M  V30 6 C 12.9048 -5.3816 0.0 0
M  V30 7 C 11.6913 -3.0 0.0 0
M  V30 8 O 14.3314 -4.9181 0.0 0
M  V30 9 C 10.3923 -2.25 0.0 0
M  V30 10 C 10.3923 -0.75 0.0 0
M  V30 11 C 9.0932 -3.0 0.0 0
M  V30 12 C 9.0932 0.0 0.0 0
M  V30 13 C 7.7942 -2.25 0.0 0
M  V30 14 C 7.7942 -0.75 0.0 0
M  V30 15 O 6.4951 0.0 0.0 0
M  V30 16 C 5.1961 -0.75 0.0 0
M  V30 17 C 3.8971 0.0 0.0 0
M  V30 18 N 2.598 -0.75 0.0 0
M  V30 19 C 2.598 -2.25 0.0 0
M  V30 20 C 1.299 0.0 0.0 0
M  V30 21 N 1.299 -2.9999 0.0 0
M  V30 22 C 3.8971 -3.0 0.0 0
M  V30 23 C 0.0 -0.75 0.0 0
M  V30 24 C 1.299 -4.4999 0.0 0
M  V30 25 C 3.8971 -4.5 0.0 0
M  V30 26 C 2.598 -5.25 0.0 0
M  V30 END ATOM
M  V30 BEGIN BOND
M  V30 1 1 1 2
M  V30 2 1 1 3
M  V30 3 2 2 4
M  V30 4 1 2 5
M  V30 5 1 3 6
M  V30 6 1 3 7 CFG=1
M  V30 7 2 6 8
M  V30 8 1 7 9
M  V30 9 2 9 10
M  V30 10 1 9 11
M  V30 11 1 10 12
M  V30 12 2 11 13
M  V30 13 2 12 14
M  V30 14 1 14 15
M  V30 15 1 15 16
M  V30 16 1 16 17
M  V30 17 1 17 18
M  V30 18 1 18 19
M  V30 19 1 18 20
M  V30 20 2 19 21
M  V30 21 1 19 22
M  V30 22 1 20 23
M  V30 23 1 21 24
M  V30 24 2 22 25
M  V30 25 2 24 26
M  V30 26 1 5 6
M  V30 27 1 13 14
M  V30 28 1 25 26
M  V30 END BOND
M  V30 BEGIN COLLECTION
M  V30 MDLV30/STERAC1 ATOMS=(1 3)
M  V30 END COLLECTION
M  V30 END CTAB
M  END
>  <Molecule ChEMBL ID>
CHEMBL4095614

>  <Smiles>
CCN(CCOc1ccc(CC2SC(=O)NC2=O)cc1)c1ccccn1

>  <IC50_nM>
21000

>  <Assay Description>
Transrepression activity at human PPARgamma expressed in HEK293 cells assessed as inhibition of TNFalpha induced NF-kappaB promoter activity pretreated for 4 hrs followed by TNFalpha stimulation after 3 hrs by luciferase reporter gene assay

$$$$
CHEMBL111077
Actelion Java MolfileCreator 2.0

  0  0  0  0  0  0              0 V3000
M  V30 BEGIN CTAB
M  V30 COUNTS 16 15 0 0 0
M  V30 BEGIN ATOM
M  V30 1 O 12.1243 -0.5 0.0 0
M  V30 2 C 11.2583 0.0 0.0 0
M  V30 3 O 11.2583 1.0 0.0 0
M  V30 4 C 10.3923 -0.5 0.0 0
M  V30 5 C 9.5262 0.0 0.0 0
M  V30 6 C 8.6602 -0.5 0.0 0
M  V30 7 C 7.7942 0.0 0.0 0
M  V30 8 C 6.9282 -0.5 0.0 0
M  V30 9 C 6.0621 0.0 0.0 0
M  V30 10 C 5.1961 -0.5 0.0 0
M  V30 11 C 4.3301 0.0 0.0 0
M  V30 12 C 3.4641 -0.5 0.0 0
M  V30 13 C 2.598 0.0 0.0 0
M  V30 14 C 1.732 -0.5 0.0 0
M  V30 15 C 0.866 0.0 0.0 0
M  V30 16 C 0.0 -0.5 0.0 0
M  V30 END ATOM
M  V30 BEGIN BOND
M  V30 1 2 1 2
M  V30 2 1 2 3
M  V30 3 1 2 4
M  V30 4 1 4 5
M  V30 5 1 5 6
M  V30 6 1 6 7
M  V30 7 1 7 8
M  V30 8 1 8 9
M  V30 9 1 9 10
M  V30 10 1 10 11
M  V30 11 1 11 12
M  V30 12 1 12 13
M  V30 13 1 13 14
M  V30 14 1 14 15
M  V30 15 1 15 16
M  V30 END BOND
M  V30 END CTAB
M  END
>  <Molecule ChEMBL ID>
CHEMBL111077

>  <Smiles>
CCCCCCCCCCCCCC(=O)O

>  <IC50_nM>
21000

>  <Assay Description>
Displacement of [3H]BRL49653 from Homo sapiens (human) PPARgamma receptor by scintillation proximity assay

$$$$
CHEMBL4449687
Actelion Java MolfileCreator 2.0

  0  0  0  0  0  0              0 V3000
M  V30 BEGIN CTAB
M  V30 COUNTS 45 49 0 0 0
M  V30 BEGIN ATOM
M  V30 1 F 3.9844 -3.4508 0.0 0
M  V30 2 C 3.0333 -3.1418 0.0 0
M  V30 3 C 2.8254 -2.1636 0.0 0
M  V30 4 C 2.2902 -3.8109 0.0 0
M  V30 5 N 3.5686 -1.4945 0.0 0
M  V30 6 C 1.8744 -1.8546 0.0 0
M  V30 7 C 1.3391 -3.5019 0.0 0
M  V30 8 C 4.5467 -1.7024 0.0 0
M  V30 9 C 3.4641 -0.5 0.0 0
M  V30 10 C 1.1312 -2.5237 0.0 0
M  V30 11 O 4.9535 -2.6159 0.0 0
M  V30 12 N 5.0467 -0.8364 0.0 0
M  V30 13 N 4.3776 -0.0932 0.0 0
M  V30 14 C 2.598 0.0 0.0 0
M  V30 15 C 6.0412 -0.7318 0.0 0
M  V30 16 C 1.732 -0.5 0.0 0
M  V30 17 C 6.629 -1.5408 0.0 0
M  V30 18 C 6.448 0.1816 0.0 0
M  V30 19 C 0.866 0.0 0.0 0
M  V30 20 C 7.6236 -1.4363 0.0 0
M  V30 21 C 7.4425 0.2861 0.0 0
M  V30 22 C 0.0 -0.5 0.0 0
M  V30 23 C 8.0303 -0.5228 0.0 0
M  V30 24 C -0.866 0.0 0.0 0
M  V30 25 C 0.0 -1.4999 0.0 0
M  V30 26 C 9.0248 -0.4182 0.0 0
M  V30 27 C -1.732 -0.4999 0.0 0
M  V30 28 C -0.866 -1.9999 0.0 0
M  V30 29 F 8.9203 0.5762 0.0 0
M  V30 30 F 10.0193 -0.3137 0.0 0
M  V30 31 F 9.1293 -1.4128 0.0 0
M  V30 32 C -1.732 -1.4999 0.0 0
M  V30 33 C -2.598 -1.9999 0.0 0
M  V30 34 C -3.4641 -1.4999 0.0 0
M  V30 35 C -2.598 -2.9999 0.0 0
M  V30 36 C -4.3301 -1.9999 0.0 0
M  V30 37 C -3.4641 -3.4999 0.0 0
M  V30 38 C -4.3301 -2.9999 0.0 0
M  V30 39 C -5.1961 -1.4999 0.0 0
M  V30 40 O -5.1961 -3.4999 0.0 0
M  V30 41 C -5.1961 -0.4999 0.0 0
M  V30 42 C -6.0621 -2.9999 0.0 0
M  V30 43 O -4.3301 0.0 0.0 0
M  V30 44 O -6.0621 0.0 0.0 0
M  V30 45 C -6.9282 -3.4999 0.0 0
M  V30 END ATOM
M  V30 BEGIN BOND
M  V30 1 1 1 2
M  V30 2 2 2 3
M  V30 3 1 2 4
M  V30 4 1 3 5
M  V30 5 1 3 6
M  V30 6 2 4 7
M  V30 7 1 5 8
M  V30 8 1 5 9
M  V30 9 2 6 10
M  V30 10 2 8 11
M  V30 11 1 8 12
M  V30 12 2 9 13
M  V30 13 1 9 14
M  V30 14 1 12 15
M  V30 15 1 14 16
M  V30 16 2 15 17
M  V30 17 1 15 18
M  V30 18 1 16 19
M  V30 19 1 17 20
M  V30 20 2 18 21
M  V30 21 1 19 22
M  V30 22 2 20 23
M  V30 23 2 22 24
M  V30 24 1 22 25
M  V30 25 1 23 26
M  V30 26 1 24 27
M  V30 27 2 25 28
M  V30 28 1 26 29
M  V30 29 1 26 30
M  V30 30 1 26 31
M  V30 31 2 27 32
M  V30 32 1 32 33
M  V30 33 2 33 34
M  V30 34 1 33 35
M  V30 35 1 34 36
M  V30 36 2 35 37
M  V30 37 2 36 38
M  V30 38 1 36 39
M  V30 39 1 38 40
M  V30 40 1 39 41
M  V30 41 1 40 42
M  V30 42 2 41 43
M  V30 43 1 41 44
M  V30 44 1 42 45
M  V30 45 1 7 10
M  V30 46 1 12 13
M  V30 47 1 21 23
M  V30 48 1 28 32
M  V30 49 1 37 38
M  V30 END BOND
M  V30 END CTAB
M  END
>  <Molecule ChEMBL ID>
CHEMBL4449687

>  <Smiles>
CCOc1ccc(-c2ccc(CCCc3nn(-c4ccc(C(F)(F)F)cc4)c(=O)n3-c3ccccc3F)cc2)cc1CC(=O)O

>  <IC50_nM>
21300

>  <Assay Description>
Antagonist activity at PPARgamma (unknown origin)

$$$$
CHEMBL232396
Actelion Java MolfileCreator 2.0

  0  0  0  0  0  0              0 V3000
M  V30 BEGIN CTAB
M  V30 COUNTS 35 38 0 0 0
M  V30 BEGIN ATOM
M  V30 1 S 6.0621 -1.9999 0.0 0
M  V30 2 C 5.1961 -1.4999 0.0 0
M  V30 3 C 6.0621 -2.9999 0.0 0
M  V30 4 C 4.3301 -1.9999 0.0 0
M  V30 5 C 5.1961 -0.4999 0.0 0
M  V30 6 C 6.9282 -3.4999 0.0 0
M  V30 7 C 3.4641 -1.4999 0.0 0
M  V30 8 C 4.1222 -2.9781 0.0 0
M  V30 9 C 4.3301 0.0 0.0 0
M  V30 10 C 6.9282 -4.5 0.0 0
M  V30 11 C 7.7942 -3.0 0.0 0
M  V30 12 C 3.4641 -0.5 0.0 0
M  V30 13 C 2.7209 -2.1691 0.0 0
M  V30 14 C 3.1276 -3.0826 0.0 0
M  V30 15 C 4.3301 1.0 0.0 0
M  V30 16 C 7.7942 -5.0 0.0 0
M  V30 17 C 8.6602 -3.5 0.0 0
M  V30 18 O 2.598 0.0 0.0 0
M  V30 19 C 8.6602 -4.5 0.0 0
M  V30 20 C 1.732 -0.5 0.0 0
M  V30 21 O 9.5262 -5.0 0.0 0
M  V30 22 C 0.866 0.0 0.0 0
M  V30 23 C 9.5262 -6.0 0.0 0
M  V30 24 O 0.866 1.0 0.0 0
M  V30 25 O 0.0 -0.5 0.0 0
M  V30 26 C 10.3923 -6.5 0.0 0
M  V30 27 C 10.3923 -7.5 0.0 0
M  V30 28 C 11.2583 -6.0 0.0 0
M  V30 29 C 11.2583 -8.0 0.0 0
M  V30 30 C 12.1243 -6.5 0.0 0
M  V30 31 C 12.1243 -7.5 0.0 0
M  V30 32 C 12.9903 -8.0 0.0 0
M  V30 33 F 13.4903 -7.1339 0.0 0
M  V30 34 F 13.8564 -8.5 0.0 0
M  V30 35 F 12.4903 -8.866 0.0 0
M  V30 END ATOM
M  V30 BEGIN BOND
M  V30 1 1 1 2
M  V30 2 1 1 3
M  V30 3 2 2 4
M  V30 4 1 2 5
M  V30 5 1 3 6
M  V30 6 1 4 7
M  V30 7 1 4 8
M  V30 8 2 5 9
M  V30 9 2 6 10
M  V30 10 1 6 11
M  V30 11 2 7 12
M  V30 12 1 7 13
M  V30 13 1 8 14
M  V30 14 1 9 15
M  V30 15 1 10 16
M  V30 16 2 11 17
M  V30 17 1 12 18
M  V30 18 2 16 19
M  V30 19 1 18 20
M  V30 20 1 19 21
M  V30 21 1 20 22
M  V30 22 1 21 23
M  V30 23 2 22 24
M  V30 24 1 22 25
M  V30 25 1 23 26
M  V30 26 2 26 27
M  V30 27 1 26 28
M  V30 28 1 27 29
M  V30 29 2 28 30
M  V30 30 2 29 31
M  V30 31 1 31 32
M  V30 32 1 32 33
M  V30 33 1 32 34
M  V30 34 1 32 35
M  V30 35 1 9 12
M  V30 36 1 13 14
M  V30 37 1 17 19
M  V30 38 1 30 31
M  V30 END BOND
M  V30 END CTAB
M  END
>  <Molecule ChEMBL ID>
CHEMBL232396

>  <Smiles>
Cc1cc(SCc2ccc(OCc3ccc(C(F)(F)F)cc3)cc2)c2c(c1OCC(=O)O)CCC2

>  <IC50_nM>
21577.4

>  <Assay Description>
Agonist activity at PPARgamma

$$$$
CHEMBL232396
Actelion Java MolfileCreator 2.0

  0  0  0  0  0  0              0 V3000
M  V30 BEGIN CTAB
M  V30 COUNTS 35 38 0 0 0
M  V30 BEGIN ATOM
M  V30 1 S 6.0621 -1.9999 0.0 0
M  V30 2 C 5.1961 -1.4999 0.0 0
M  V30 3 C 6.0621 -2.9999 0.0 0
M  V30 4 C 4.3301 -1.9999 0.0 0
M  V30 5 C 5.1961 -0.4999 0.0 0
M  V30 6 C 6.9282 -3.4999 0.0 0
M  V30 7 C 3.4641 -1.4999 0.0 0
M  V30 8 C 4.1222 -2.9781 0.0 0
M  V30 9 C 4.3301 0.0 0.0 0
M  V30 10 C 6.9282 -4.5 0.0 0
M  V30 11 C 7.7942 -3.0 0.0 0
M  V30 12 C 3.4641 -0.5 0.0 0
M  V30 13 C 2.7209 -2.1691 0.0 0
M  V30 14 C 3.1276 -3.0826 0.0 0
M  V30 15 C 4.3301 1.0 0.0 0
M  V30 16 C 7.7942 -5.0 0.0 0
M  V30 17 C 8.6602 -3.5 0.0 0
M  V30 18 O 2.598 0.0 0.0 0
M  V30 19 C 8.6602 -4.5 0.0 0
M  V30 20 C 1.732 -0.5 0.0 0
M  V30 21 O 9.5262 -5.0 0.0 0
M  V30 22 C 0.866 0.0 0.0 0
M  V30 23 C 9.5262 -6.0 0.0 0
M  V30 24 O 0.866 1.0 0.0 0
M  V30 25 O 0.0 -0.5 0.0 0
M  V30 26 C 10.3923 -6.5 0.0 0
M  V30 27 C 10.3923 -7.5 0.0 0
M  V30 28 C 11.2583 -6.0 0.0 0
M  V30 29 C 11.2583 -8.0 0.0 0
M  V30 30 C 12.1243 -6.5 0.0 0
M  V30 31 C 12.1243 -7.5 0.0 0
M  V30 32 C 12.9903 -8.0 0.0 0
M  V30 33 F 13.4903 -7.1339 0.0 0
M  V30 34 F 13.8564 -8.5 0.0 0
M  V30 35 F 12.4903 -8.866 0.0 0
M  V30 END ATOM
M  V30 BEGIN BOND
M  V30 1 1 1 2
M  V30 2 1 1 3
M  V30 3 2 2 4
M  V30 4 1 2 5
M  V30 5 1 3 6
M  V30 6 1 4 7
M  V30 7 1 4 8
M  V30 8 2 5 9
M  V30 9 2 6 10
M  V30 10 1 6 11
M  V30 11 2 7 12
M  V30 12 1 7 13
M  V30 13 1 8 14
M  V30 14 1 9 15
M  V30 15 1 10 16
M  V30 16 2 11 17
M  V30 17 1 12 18
M  V30 18 2 16 19
M  V30 19 1 18 20
M  V30 20 1 19 21
M  V30 21 1 20 22
M  V30 22 1 21 23
M  V30 23 2 22 24
M  V30 24 1 22 25
M  V30 25 1 23 26
M  V30 26 2 26 27
M  V30 27 1 26 28
M  V30 28 1 27 29
M  V30 29 2 28 30
M  V30 30 2 29 31
M  V30 31 1 31 32
M  V30 32 1 32 33
M  V30 33 1 32 34
M  V30 34 1 32 35
M  V30 35 1 9 12
M  V30 36 1 13 14
M  V30 37 1 17 19
M  V30 38 1 30 31
M  V30 END BOND
M  V30 END CTAB
M  END
>  <Molecule ChEMBL ID>
CHEMBL232396

>  <Smiles>
Cc1cc(SCc2ccc(OCc3ccc(C(F)(F)F)cc3)cc2)c2c(c1OCC(=O)O)CCC2

>  <IC50_nM>
21600

>  <Assay Description>
Displacement of [3H]5-(4-(3-(5-methyl-2-phenyloxazol-4-yl)propanoyl)benzyl)thiazolidine-2,4-dione from human PPARgamma after 2 hrs by SPA assay

$$$$
CHEMBL121
Actelion Java MolfileCreator 2.0

  0  0  0  0  0  0              0 V3000
M  V30 BEGIN CTAB
M  V30 COUNTS 25 27 0 0 0
M  V30 BEGIN ATOM
M  V30 1 S 7.8987 0.0054 0.0 0
M  V30 2 C 8.8769 -0.2024 0.0 0
M  V30 3 C 7.7942 0.9999 0.0 0 CFG=2
M  V30 4 O 9.2836 -1.1159 0.0 0
M  V30 5 N 9.3769 0.6635 0.0 0
M  V30 6 C 8.7077 1.4067 0.0 0
M  V30 7 C 6.9282 1.4999 0.0 0
M  V30 8 O 8.9156 2.3848 0.0 0
M  V30 9 C 6.0621 0.9999 0.0 0
M  V30 10 C 5.1961 1.4999 0.0 0
M  V30 11 C 6.0621 0.0 0.0 0
M  V30 12 C 4.3301 0.9999 0.0 0
M  V30 13 C 5.1961 -0.5 0.0 0
M  V30 14 C 4.3301 0.0 0.0 0
M  V30 15 O 3.4641 -0.5 0.0 0
M  V30 16 C 2.598 0.0 0.0 0
M  V30 17 C 1.732 -0.5 0.0 0
M  V30 18 N 0.866 0.0 0.0 0
M  V30 19 C 0.866 1.0 0.0 0
M  V30 20 C 0.0 -0.5 0.0 0
M  V30 21 N 1.732 1.4999 0.0 0
M  V30 22 C 0.0 1.4999 0.0 0
M  V30 23 C 1.732 2.5 0.0 0
M  V30 24 C 0.0 2.5 0.0 0
M  V30 25 C 0.866 3.0 0.0 0
M  V30 END ATOM
M  V30 BEGIN BOND
M  V30 1 1 1 2
M  V30 2 1 1 3
M  V30 3 2 2 4
M  V30 4 1 2 5
M  V30 5 1 3 6
M  V30 6 1 3 7 CFG=1
M  V30 7 2 6 8
M  V30 8 1 7 9
M  V30 9 2 9 10
M  V30 10 1 9 11
M  V30 11 1 10 12
M  V30 12 2 11 13
M  V30 13 2 12 14
M  V30 14 1 14 15
M  V30 15 1 15 16
M  V30 16 1 16 17
M  V30 17 1 17 18
M  V30 18 1 18 19
M  V30 19 1 18 20
M  V30 20 2 19 21
M  V30 21 1 19 22
M  V30 22 1 21 23
M  V30 23 2 22 24
M  V30 24 2 23 25
M  V30 25 1 5 6
M  V30 26 1 13 14
M  V30 27 1 24 25
M  V30 END BOND
M  V30 BEGIN COLLECTION
M  V30 MDLV30/STERAC1 ATOMS=(1 3)
M  V30 END COLLECTION
M  V30 END CTAB
M  END
>  <Molecule ChEMBL ID>
CHEMBL121

>  <Smiles>
CN(CCOc1ccc(CC2SC(=O)NC2=O)cc1)c1ccccn1

>  <IC50_nM>
22000

>  <Assay Description>
Transrepression activity at human PPARgamma expressed in HEK293 cells assessed as inhibition of TNFalpha induced NF-kappaB promoter activity pretreated for 4 hrs followed by TNFalpha stimulation after 3 hrs by luciferase reporter gene assay

$$$$
CHEMBL515181
Actelion Java MolfileCreator 2.0

  0  0  0  0  0  0              0 V3000
M  V30 BEGIN CTAB
M  V30 COUNTS 32 35 0 0 0
M  V30 BEGIN ATOM
M  V30 1 O 6.9282 -4.5 0.0 0
M  V30 2 C 6.9282 -3.5 0.0 0
M  V30 3 O 7.7942 -3.0 0.0 0
M  V30 4 C 6.0621 -3.0 0.0 0 CFG=1
M  V30 5 C 5.1961 -3.5 0.0 0
M  V30 6 C 6.0621 -1.9999 0.0 0
M  V30 7 C 4.3301 -2.9999 0.0 0
M  V30 8 C 5.1961 -4.5 0.0 0
M  V30 9 C 5.1961 -1.4999 0.0 0
M  V30 10 N 3.4641 -3.4999 0.0 0
M  V30 11 C 4.3301 -4.9999 0.0 0
M  V30 12 C 5.1961 -0.5 0.0 0
M  V30 13 C 4.3301 -1.9999 0.0 0
M  V30 14 C 3.4641 -4.4999 0.0 0
M  V30 15 C 4.3301 0.0 0.0 0
M  V30 16 C 3.4641 -1.5 0.0 0
M  V30 17 C 3.4641 -0.5 0.0 0
M  V30 18 C 2.598 0.0 0.0 0
M  V30 19 C 1.732 -0.5 0.0 0
M  V30 20 C 0.866 0.0 0.0 0
M  V30 21 C 0.0 -0.5 0.0 0
M  V30 22 N -0.9135 -0.0932 0.0 0
M  V30 23 C -0.1045 -1.4945 0.0 0
M  V30 24 C -1.5826 -0.8364 0.0 0
M  V30 25 O -1.0826 -1.7024 0.0 0
M  V30 26 C 0.6386 -2.1636 0.0 0
M  V30 27 C -2.5771 -0.7318 0.0 0
M  V30 28 C -2.9839 0.1816 0.0 0
M  V30 29 C -3.1649 -1.5408 0.0 0
M  V30 30 C -3.9784 0.2861 0.0 0
M  V30 31 C -4.1595 -1.4363 0.0 0
M  V30 32 C -4.5662 -0.5228 0.0 0
M  V30 END ATOM
M  V30 BEGIN BOND
M  V30 1 2 1 2
M  V30 2 1 2 3
M  V30 3 1 2 4
M  V30 4 1 4 5
M  V30 5 1 4 6 CFG=1
M  V30 6 2 5 7
M  V30 7 1 5 8
M  V30 8 1 6 9
M  V30 9 1 7 10
M  V30 10 2 8 11
M  V30 11 2 9 12
M  V30 12 1 9 13
M  V30 13 2 10 14
M  V30 14 1 12 15
M  V30 15 2 13 16
M  V30 16 2 15 17
M  V30 17 1 17 18
M  V30 18 1 18 19
M  V30 19 1 19 20
M  V30 20 1 20 21
M  V30 21 1 21 22
M  V30 22 2 21 23
M  V30 23 2 22 24
M  V30 24 1 23 25
M  V30 25 1 23 26
M  V30 26 1 24 27
M  V30 27 2 27 28
M  V30 28 1 27 29
M  V30 29 1 28 30
M  V30 30 2 29 31
M  V30 31 2 30 32
M  V30 32 1 11 14
M  V30 33 1 16 17
M  V30 34 1 24 25
M  V30 35 1 31 32
M  V30 END BOND
M  V30 BEGIN COLLECTION
M  V30 MDLV30/STERAC1 ATOMS=(1 4)
M  V30 END COLLECTION
M  V30 END CTAB
M  END
>  <Molecule ChEMBL ID>
CHEMBL515181

>  <Smiles>
Cc1oc(-c2ccccc2)nc1CCCc1ccc(CC(C(=O)O)c2cccnc2)cc1

>  <IC50_nM>
22000

>  <Assay Description>
Displacement of [3H]darglitazone from human PPARgamma by scintillation proximity assay

$$$$
CHEMBL595
Actelion Java MolfileCreator 2.0

  0  0  0  0  0  0              0 V3000
M  V30 BEGIN CTAB
M  V30 COUNTS 25 27 0 0 0
M  V30 BEGIN ATOM
M  V30 1 S 5.2531 -3.5877 0.0 0
M  V30 2 C 5.5621 -4.5388 0.0 0
M  V30 3 C 6.0621 -3.0 0.0 0 CFG=2
M  V30 4 O 4.9743 -5.3478 0.0 0
M  V30 5 N 6.5621 -4.5388 0.0 0
M  V30 6 C 6.8711 -3.5877 0.0 0
M  V30 7 C 6.0621 -1.9999 0.0 0
M  V30 8 O 7.8222 -3.2787 0.0 0
M  V30 9 C 5.1961 -1.4999 0.0 0
M  V30 10 C 5.1961 -0.5 0.0 0
M  V30 11 C 4.3301 -1.9999 0.0 0
M  V30 12 C 4.3301 0.0 0.0 0
M  V30 13 C 3.4641 -1.5 0.0 0
M  V30 14 C 3.4641 -0.5 0.0 0
M  V30 15 O 2.598 0.0 0.0 0
M  V30 16 C 1.732 -0.5 0.0 0
M  V30 17 C 0.866 0.0 0.0 0
M  V30 18 C 0.0 -0.5 0.0 0
M  V30 19 N -0.866 0.0 0.0 0
M  V30 20 C 0.0 -1.4999 0.0 0
M  V30 21 C -1.732 -0.4999 0.0 0
M  V30 22 C -0.866 -1.9999 0.0 0
M  V30 23 C -1.732 -1.4999 0.0 0
M  V30 24 C -2.598 -1.9999 0.0 0
M  V30 25 C -2.598 -2.9999 0.0 0
M  V30 END ATOM
M  V30 BEGIN BOND
M  V30 1 1 1 2
M  V30 2 1 1 3
M  V30 3 2 2 4
M  V30 4 1 2 5
M  V30 5 1 3 6
M  V30 6 1 3 7 CFG=1
M  V30 7 2 6 8
M  V30 8 1 7 9
M  V30 9 2 9 10
M  V30 10 1 9 11
M  V30 11 1 10 12
M  V30 12 2 11 13
M  V30 13 2 12 14
M  V30 14 1 14 15
M  V30 15 1 15 16
M  V30 16 1 16 17
M  V30 17 1 17 18
M  V30 18 2 18 19
M  V30 19 1 18 20
M  V30 20 1 19 21
M  V30 21 2 20 22
M  V30 22 2 21 23
M  V30 23 1 23 24
M  V30 24 1 24 25
M  V30 25 1 5 6
M  V30 26 1 13 14
M  V30 27 1 22 23
M  V30 END BOND
M  V30 BEGIN COLLECTION
M  V30 MDLV30/STERAC1 ATOMS=(1 3)
M  V30 END COLLECTION
M  V30 END CTAB
M  END
>  <Molecule ChEMBL ID>
CHEMBL595

>  <Smiles>
CCc1ccc(CCOc2ccc(CC3SC(=O)NC3=O)cc2)nc1

>  <IC50_nM>
22000

>  <Assay Description>
Transrepression activity at human PPARgamma expressed in HEK293 cells assessed as inhibition of TNFalpha induced NF-kappaB promoter activity pretreated for 4 hrs followed by TNFalpha stimulation after 3 hrs by luciferase reporter gene assay

$$$$
CHEMBL3752848
Actelion Java MolfileCreator 2.0

  0  0  0  0  0  0              0 V3000
M  V30 BEGIN CTAB
M  V30 COUNTS 42 46 0 0 0
M  V30 BEGIN ATOM
M  V30 1 O 11.759 9.052 0.0 0
M  V30 2 C 10.4524 8.2977 0.0 0
M  V30 3 N 9.1459 9.052 0.0 0
M  V30 4 N 10.4524 6.789 0.0 0
M  V30 5 C 7.8393 8.2977 0.0 0
M  V30 6 C 9.1459 6.0347 0.0 0
M  V30 7 O 6.5327 9.052 0.0 0
M  V30 8 C 7.8393 6.789 0.0 0
M  V30 9 O 9.1459 4.526 0.0 0
M  V30 10 C 6.5327 6.0347 0.0 0
M  V30 11 C 6.5327 4.526 0.0 0
M  V30 12 C 5.2262 3.7717 0.0 0
M  V30 13 C 7.8393 3.7717 0.0 0
M  V30 14 C 5.2262 2.263 0.0 0
M  V30 15 C 7.8393 2.263 0.0 0
M  V30 16 C 6.5327 1.5086 0.0 0
M  V30 17 N 6.5327 0.0 0.0 0
M  V30 18 C 5.2262 -0.7543 0.0 0
M  V30 19 C 7.8393 -0.7543 0.0 0
M  V30 20 C 3.9196 0.0 0.0 0
M  V30 21 C 9.1459 0.0 0.0 0
M  V30 22 O 2.6131 -0.7543 0.0 0
M  V30 23 O 10.4524 -0.7543 0.0 0
M  V30 24 C 1.3065 0.0 0.0 0
M  V30 25 C 1.3065 1.5086 0.0 0
M  V30 26 C 1.3065 -1.5086 0.0 0
M  V30 27 C 0.0 -0.7543 0.0 0
M  V30 28 C 2.6131 2.263 0.0 0
M  V30 29 C 0.0 2.263 0.0 0
M  V30 30 C 0.1929 -2.2736 0.0 0
M  V30 31 C 2.6131 -2.263 0.0 0
M  V30 32 C -1.3065 0.0 0.0 0
M  V30 33 C -0.3703 -2.3134 0.0 0
M  V30 34 C 2.6131 3.7717 0.0 0
M  V30 35 C 0.0 3.7717 0.0 0
M  V30 36 C 0.0 -3.7717 0.0 0
M  V30 37 C 2.6131 -3.7717 0.0 0
M  V30 38 C -2.6131 -0.7543 0.0 0
M  V30 39 C -1.3065 -3.0173 0.0 0
M  V30 40 C 1.3065 4.526 0.0 0
M  V30 41 C 1.3065 -4.526 0.0 0
M  V30 42 C -2.6131 -2.263 0.0 0
M  V30 END ATOM
M  V30 BEGIN BOND
M  V30 1 2 1 2
M  V30 2 1 2 3
M  V30 3 1 2 4
M  V30 4 1 3 5
M  V30 5 1 4 6
M  V30 6 2 5 7
M  V30 7 1 5 8
M  V30 8 2 6 9
M  V30 9 2 8 10
M  V30 10 1 10 11
M  V30 11 2 11 12
M  V30 12 1 11 13
M  V30 13 1 12 14
M  V30 14 2 13 15
M  V30 15 2 14 16
M  V30 16 1 16 17
M  V30 17 1 17 18
M  V30 18 1 17 19
M  V30 19 1 18 20
M  V30 20 1 19 21
M  V30 21 1 20 22
M  V30 22 1 21 23
M  V30 23 1 22 24
M  V30 24 1 24 25
M  V30 25 1 24 26
M  V30 26 1 24 27
M  V30 27 2 25 28
M  V30 28 1 25 29
M  V30 29 2 26 30
M  V30 30 1 26 31
M  V30 31 2 27 32
M  V30 32 1 27 33
M  V30 33 1 28 34
M  V30 34 2 29 35
M  V30 35 1 30 36
M  V30 36 2 31 37
M  V30 37 1 32 38
M  V30 38 2 33 39
M  V30 39 2 34 40
M  V30 40 2 36 41
M  V30 41 2 38 42
M  V30 42 1 6 8
M  V30 43 1 15 16
M  V30 44 1 35 40
M  V30 45 1 37 41
M  V30 46 1 39 42
M  V30 END BOND
M  V30 END CTAB
M  END
>  <Molecule ChEMBL ID>
CHEMBL3752848

>  <Smiles>
O=C1NC(=O)C(=Cc2ccc(N(CCO)CCOC(c3ccccc3)(c3ccccc3)c3ccccc3)cc2)C(=O)N1

>  <IC50_nM>
22200

>  <Assay Description>
Binding affinity to GST-tagged human PPAR-gamma receptor by FRET assay

$$$$
CHEMBL146624
Actelion Java MolfileCreator 2.0

  0  0  0  0  0  0              0 V3000
M  V30 BEGIN CTAB
M  V30 COUNTS 26 28 0 0 0
M  V30 BEGIN ATOM
M  V30 1 S 5.2531 -3.5877 0.0 0
M  V30 2 C 5.5621 -4.5388 0.0 0
M  V30 3 C 6.0621 -3.0 0.0 0 CFG=2
M  V30 4 O 4.9743 -5.3478 0.0 0
M  V30 5 N 6.5621 -4.5388 0.0 0
M  V30 6 C 6.8711 -3.5877 0.0 0
M  V30 7 C 6.0621 -1.9999 0.0 0
M  V30 8 O 7.8222 -3.2787 0.0 0
M  V30 9 C 5.1961 -1.4999 0.0 0
M  V30 10 C 5.1961 -0.5 0.0 0
M  V30 11 C 4.3301 -1.9999 0.0 0
M  V30 12 C 4.3301 0.0 0.0 0
M  V30 13 C 3.4641 -1.5 0.0 0
M  V30 14 C 3.4641 -0.5 0.0 0
M  V30 15 O 2.598 0.0 0.0 0
M  V30 16 C 1.732 -0.5 0.0 0
M  V30 17 C 0.866 0.0 0.0 0
M  V30 18 O 0.866 1.0 0.0 0
M  V30 19 C 0.0 -0.5 0.0 0
M  V30 20 N -0.866 0.0 0.0 0
M  V30 21 C 0.0 -1.4999 0.0 0
M  V30 22 C -1.732 -0.4999 0.0 0
M  V30 23 C -0.866 -1.9999 0.0 0
M  V30 24 C -1.732 -1.4999 0.0 0
M  V30 25 C -2.598 -1.9999 0.0 0
M  V30 26 C -2.598 -2.9999 0.0 0
M  V30 END ATOM
M  V30 BEGIN BOND
M  V30 1 1 1 2
M  V30 2 1 1 3
M  V30 3 2 2 4
M  V30 4 1 2 5
M  V30 5 1 3 6
M  V30 6 1 3 7 CFG=1
M  V30 7 2 6 8
M  V30 8 1 7 9
M  V30 9 2 9 10
M  V30 10 1 9 11
M  V30 11 1 10 12
M  V30 12 2 11 13
M  V30 13 2 12 14
M  V30 14 1 14 15
M  V30 15 1 15 16
M  V30 16 1 16 17
M  V30 17 2 17 18
M  V30 18 1 17 19
M  V30 19 2 19 20
M  V30 20 1 19 21
M  V30 21 1 20 22
M  V30 22 2 21 23
M  V30 23 2 22 24
M  V30 24 1 24 25
M  V30 25 1 25 26
M  V30 26 1 5 6
M  V30 27 1 13 14
M  V30 28 1 23 24
M  V30 END BOND
M  V30 BEGIN COLLECTION
M  V30 MDLV30/STERAC1 ATOMS=(1 3)
M  V30 END COLLECTION
M  V30 END CTAB
M  END
>  <Molecule ChEMBL ID>
CHEMBL146624

>  <Smiles>
CCc1ccc(C(=O)COc2ccc(CC3SC(=O)NC3=O)cc2)nc1

>  <IC50_nM>
22300

>  <Assay Description>
Competitive displacement of fluorescently labelled PPAR tracer ligand from GST-tagged human PPARgamma ligand binding domain after 1 hr in dark by TR-FRET competitive binding assay

$$$$
CHEMBL150
Actelion Java MolfileCreator 2.0

  0  0  0  0  0  0              0 V3000
M  V30 BEGIN CTAB
M  V30 COUNTS 21 23 0 0 0
M  V30 BEGIN ATOM
M  V30 1 O 0.866 0.0 0.0 0
M  V30 2 C 0.0 -0.5 0.0 0
M  V30 3 C -0.866 0.0 0.0 0
M  V30 4 C 0.0 -1.4999 0.0 0
M  V30 5 O -0.866 1.0 0.0 0
M  V30 6 C -1.732 -0.4999 0.0 0
M  V30 7 C -0.866 -1.9999 0.0 0
M  V30 8 C 0.866 -1.9999 0.0 0
M  V30 9 O -1.732 -1.4999 0.0 0
M  V30 10 C -2.598 0.0 0.0 0
M  V30 11 C -0.866 -2.9999 0.0 0
M  V30 12 O 1.732 -1.5 0.0 0
M  V30 13 C 0.866 -3.0 0.0 0
M  V30 14 C -2.598 1.0 0.0 0
M  V30 15 C -3.4641 -0.4999 0.0 0
M  V30 16 C 0.0 -3.4999 0.0 0
M  V30 17 C -3.4641 1.5 0.0 0
M  V30 18 C -4.3301 0.0 0.0 0
M  V30 19 O 0.0 -4.4999 0.0 0
M  V30 20 C -4.3301 1.0 0.0 0
M  V30 21 O -5.1961 1.5 0.0 0
M  V30 END ATOM
M  V30 BEGIN BOND
M  V30 1 2 1 2
M  V30 2 1 2 3
M  V30 3 1 2 4
M  V30 4 1 3 5
M  V30 5 2 3 6
M  V30 6 2 4 7
M  V30 7 1 4 8
M  V30 8 1 6 9
M  V30 9 1 6 10
M  V30 10 1 7 11
M  V30 11 1 8 12
M  V30 12 2 8 13
M  V30 13 2 10 14
M  V30 14 1 10 15
M  V30 15 2 11 16
M  V30 16 1 14 17
M  V30 17 2 15 18
M  V30 18 1 16 19
M  V30 19 2 17 20
M  V30 20 1 20 21
M  V30 21 1 7 9
M  V30 22 1 13 16
M  V30 23 1 18 20
M  V30 END BOND
M  V30 END CTAB
M  END
>  <Molecule ChEMBL ID>
CHEMBL150

>  <Smiles>
O=c1c(O)c(-c2ccc(O)cc2)oc2cc(O)cc(O)c12

>  <IC50_nM>
23100

>  <Assay Description>
Agonist activity at PPARgamma (unknown origin)

$$$$
CHEMBL234659
Actelion Java MolfileCreator 2.0

  0  0  0  0  0  0              0 V3000
M  V30 BEGIN CTAB
M  V30 COUNTS 34 36 0 0 0
M  V30 BEGIN ATOM
M  V30 1 S 6.0621 -2.0 0.0 0
M  V30 2 C 5.1961 -1.4999 0.0 0
M  V30 3 C 6.0621 -3.0 0.0 0
M  V30 4 C 5.1961 -0.5 0.0 0
M  V30 5 C 4.3301 -1.9999 0.0 0
M  V30 6 C 6.9282 -3.5 0.0 0
M  V30 7 O 6.0621 0.0 0.0 0
M  V30 8 C 4.3301 0.0 0.0 0
M  V30 9 C 3.4641 -1.5 0.0 0
M  V30 10 C 6.9282 -4.5 0.0 0
M  V30 11 C 7.7942 -3.0 0.0 0
M  V30 12 C 6.0621 0.9999 0.0 0
M  V30 13 C 3.4641 -0.5 0.0 0
M  V30 14 C 2.598 -2.0 0.0 0
M  V30 15 C 7.7942 -5.0 0.0 0
M  V30 16 C 8.6602 -3.5 0.0 0
M  V30 17 O 2.598 0.0 0.0 0
M  V30 18 C 8.6602 -4.5 0.0 0
M  V30 19 C 1.732 -0.5 0.0 0
M  V30 20 O 9.5262 -5.0 0.0 0
M  V30 21 C 0.866 0.0 0.0 0
M  V30 22 C 9.5262 -6.0 0.0 0
M  V30 23 O 0.866 1.0 0.0 0
M  V30 24 O 0.0 -0.5 0.0 0
M  V30 25 C 10.3923 -6.5 0.0 0
M  V30 26 C 10.3923 -7.5 0.0 0
M  V30 27 C 11.2583 -6.0 0.0 0
M  V30 28 C 11.2583 -8.0 0.0 0
M  V30 29 C 12.1243 -6.5 0.0 0
M  V30 30 C 12.1243 -7.5 0.0 0
M  V30 31 C 12.9903 -8.0 0.0 0
M  V30 32 F 13.4903 -7.1339 0.0 0
M  V30 33 F 13.8564 -8.5 0.0 0
M  V30 34 F 12.4903 -8.866 0.0 0
M  V30 END ATOM
M  V30 BEGIN BOND
M  V30 1 1 1 2
M  V30 2 1 1 3
M  V30 3 2 2 4
M  V30 4 1 2 5
M  V30 5 1 3 6
M  V30 6 1 4 7
M  V30 7 1 4 8
M  V30 8 2 5 9
M  V30 9 2 6 10
M  V30 10 1 6 11
M  V30 11 1 7 12
M  V30 12 2 8 13
M  V30 13 1 9 14
M  V30 14 1 10 15
M  V30 15 2 11 16
M  V30 16 1 13 17
M  V30 17 2 15 18
M  V30 18 1 17 19
M  V30 19 1 18 20
M  V30 20 1 19 21
M  V30 21 1 20 22
M  V30 22 2 21 23
M  V30 23 1 21 24
M  V30 24 1 22 25
M  V30 25 2 25 26
M  V30 26 1 25 27
M  V30 27 1 26 28
M  V30 28 2 27 29
M  V30 29 2 28 30
M  V30 30 1 30 31
M  V30 31 1 31 32
M  V30 32 1 31 33
M  V30 33 1 31 34
M  V30 34 1 9 13
M  V30 35 1 16 18
M  V30 36 1 29 30
M  V30 END BOND
M  V30 END CTAB
M  END
>  <Molecule ChEMBL ID>
CHEMBL234659

>  <Smiles>
COc1cc(OCC(=O)O)c(C)cc1SCc1ccc(OCc2ccc(C(F)(F)F)cc2)cc1

>  <IC50_nM>
23600

>  <Assay Description>
Displacement of [3H]5-(4-(3-(5-methyl-2-phenyloxazol-4-yl)propanoyl)benzyl)thiazolidine-2,4-dione from human PPARgamma after 2 hrs by SPA assay

$$$$
CHEMBL234659
Actelion Java MolfileCreator 2.0

  0  0  0  0  0  0              0 V3000
M  V30 BEGIN CTAB
M  V30 COUNTS 34 36 0 0 0
M  V30 BEGIN ATOM
M  V30 1 S 6.0621 -2.0 0.0 0
M  V30 2 C 5.1961 -1.4999 0.0 0
M  V30 3 C 6.0621 -3.0 0.0 0
M  V30 4 C 5.1961 -0.5 0.0 0
M  V30 5 C 4.3301 -1.9999 0.0 0
M  V30 6 C 6.9282 -3.5 0.0 0
M  V30 7 O 6.0621 0.0 0.0 0
M  V30 8 C 4.3301 0.0 0.0 0
M  V30 9 C 3.4641 -1.5 0.0 0
M  V30 10 C 6.9282 -4.5 0.0 0
M  V30 11 C 7.7942 -3.0 0.0 0
M  V30 12 C 6.0621 0.9999 0.0 0
M  V30 13 C 3.4641 -0.5 0.0 0
M  V30 14 C 2.598 -2.0 0.0 0
M  V30 15 C 7.7942 -5.0 0.0 0
M  V30 16 C 8.6602 -3.5 0.0 0
M  V30 17 O 2.598 0.0 0.0 0
M  V30 18 C 8.6602 -4.5 0.0 0
M  V30 19 C 1.732 -0.5 0.0 0
M  V30 20 O 9.5262 -5.0 0.0 0
M  V30 21 C 0.866 0.0 0.0 0
M  V30 22 C 9.5262 -6.0 0.0 0
M  V30 23 O 0.866 1.0 0.0 0
M  V30 24 O 0.0 -0.5 0.0 0
M  V30 25 C 10.3923 -6.5 0.0 0
M  V30 26 C 10.3923 -7.5 0.0 0
M  V30 27 C 11.2583 -6.0 0.0 0
M  V30 28 C 11.2583 -8.0 0.0 0
M  V30 29 C 12.1243 -6.5 0.0 0
M  V30 30 C 12.1243 -7.5 0.0 0
M  V30 31 C 12.9903 -8.0 0.0 0
M  V30 32 F 13.4903 -7.1339 0.0 0
M  V30 33 F 13.8564 -8.5 0.0 0
M  V30 34 F 12.4903 -8.866 0.0 0
M  V30 END ATOM
M  V30 BEGIN BOND
M  V30 1 1 1 2
M  V30 2 1 1 3
M  V30 3 2 2 4
M  V30 4 1 2 5
M  V30 5 1 3 6
M  V30 6 1 4 7
M  V30 7 1 4 8
M  V30 8 2 5 9
M  V30 9 2 6 10
M  V30 10 1 6 11
M  V30 11 1 7 12
M  V30 12 2 8 13
M  V30 13 1 9 14
M  V30 14 1 10 15
M  V30 15 2 11 16
M  V30 16 1 13 17
M  V30 17 2 15 18
M  V30 18 1 17 19
M  V30 19 1 18 20
M  V30 20 1 19 21
M  V30 21 1 20 22
M  V30 22 2 21 23
M  V30 23 1 21 24
M  V30 24 1 22 25
M  V30 25 2 25 26
M  V30 26 1 25 27
M  V30 27 1 26 28
M  V30 28 2 27 29
M  V30 29 2 28 30
M  V30 30 1 30 31
M  V30 31 1 31 32
M  V30 32 1 31 33
M  V30 33 1 31 34
M  V30 34 1 9 13
M  V30 35 1 16 18
M  V30 36 1 29 30
M  V30 END BOND
M  V30 END CTAB
M  END
>  <Molecule ChEMBL ID>
CHEMBL234659

>  <Smiles>
COc1cc(OCC(=O)O)c(C)cc1SCc1ccc(OCc2ccc(C(F)(F)F)cc2)cc1

>  <IC50_nM>
23600

>  <Assay Description>
Agonist activity at PPARgamma

$$$$
CHEMBL234659
Actelion Java MolfileCreator 2.0

  0  0  0  0  0  0              0 V3000
M  V30 BEGIN CTAB
M  V30 COUNTS 34 36 0 0 0
M  V30 BEGIN ATOM
M  V30 1 S 6.0621 -2.0 0.0 0
M  V30 2 C 5.1961 -1.4999 0.0 0
M  V30 3 C 6.0621 -3.0 0.0 0
M  V30 4 C 5.1961 -0.5 0.0 0
M  V30 5 C 4.3301 -1.9999 0.0 0
M  V30 6 C 6.9282 -3.5 0.0 0
M  V30 7 O 6.0621 0.0 0.0 0
M  V30 8 C 4.3301 0.0 0.0 0
M  V30 9 C 3.4641 -1.5 0.0 0
M  V30 10 C 6.9282 -4.5 0.0 0
M  V30 11 C 7.7942 -3.0 0.0 0
M  V30 12 C 6.0621 0.9999 0.0 0
M  V30 13 C 3.4641 -0.5 0.0 0
M  V30 14 C 2.598 -2.0 0.0 0
M  V30 15 C 7.7942 -5.0 0.0 0
M  V30 16 C 8.6602 -3.5 0.0 0
M  V30 17 O 2.598 0.0 0.0 0
M  V30 18 C 8.6602 -4.5 0.0 0
M  V30 19 C 1.732 -0.5 0.0 0
M  V30 20 O 9.5262 -5.0 0.0 0
M  V30 21 C 0.866 0.0 0.0 0
M  V30 22 C 9.5262 -6.0 0.0 0
M  V30 23 O 0.866 1.0 0.0 0
M  V30 24 O 0.0 -0.5 0.0 0
M  V30 25 C 10.3923 -6.5 0.0 0
M  V30 26 C 10.3923 -7.5 0.0 0
M  V30 27 C 11.2583 -6.0 0.0 0
M  V30 28 C 11.2583 -8.0 0.0 0
M  V30 29 C 12.1243 -6.5 0.0 0
M  V30 30 C 12.1243 -7.5 0.0 0
M  V30 31 C 12.9903 -8.0 0.0 0
M  V30 32 F 13.4903 -7.1339 0.0 0
M  V30 33 F 13.8564 -8.5 0.0 0
M  V30 34 F 12.4903 -8.866 0.0 0
M  V30 END ATOM
M  V30 BEGIN BOND
M  V30 1 1 1 2
M  V30 2 1 1 3
M  V30 3 2 2 4
M  V30 4 1 2 5
M  V30 5 1 3 6
M  V30 6 1 4 7
M  V30 7 1 4 8
M  V30 8 2 5 9
M  V30 9 2 6 10
M  V30 10 1 6 11
M  V30 11 1 7 12
M  V30 12 2 8 13
M  V30 13 1 9 14
M  V30 14 1 10 15
M  V30 15 2 11 16
M  V30 16 1 13 17
M  V30 17 2 15 18
M  V30 18 1 17 19
M  V30 19 1 18 20
M  V30 20 1 19 21
M  V30 21 1 20 22
M  V30 22 2 21 23
M  V30 23 1 21 24
M  V30 24 1 22 25
M  V30 25 2 25 26
M  V30 26 1 25 27
M  V30 27 1 26 28
M  V30 28 2 27 29
M  V30 29 2 28 30
M  V30 30 1 30 31
M  V30 31 1 31 32
M  V30 32 1 31 33
M  V30 33 1 31 34
M  V30 34 1 9 13
M  V30 35 1 16 18
M  V30 36 1 29 30
M  V30 END BOND
M  V30 END CTAB
M  END
>  <Molecule ChEMBL ID>
CHEMBL234659

>  <Smiles>
COc1cc(OCC(=O)O)c(C)cc1SCc1ccc(OCc2ccc(C(F)(F)F)cc2)cc1

>  <IC50_nM>
23604.8

>  <Assay Description>
Agonist activity at PPARgamma

$$$$
CHEMBL4465395
Actelion Java MolfileCreator 2.0

  0  0  0  0  0  0              0 V3000
M  V30 BEGIN CTAB
M  V30 COUNTS 35 38 0 0 0
M  V30 BEGIN ATOM
M  V30 1 F 0.0 4.4999 0.0 0
M  V30 2 C 0.866 3.9999 0.0 0
M  V30 3 C 0.866 2.9999 0.0 0
M  V30 4 C 1.732 4.4999 0.0 0
M  V30 5 C 1.732 2.4999 0.0 0
M  V30 6 C 2.598 3.9999 0.0 0
M  V30 7 C 2.598 3.0 0.0 0
M  V30 8 C 3.4641 2.5 0.0 0
M  V30 9 O 3.4641 1.4999 0.0 0
M  V30 10 C 4.3301 1.0 0.0 0
M  V30 11 C 4.3301 0.0 0.0 0
M  V30 12 C 5.1961 1.5 0.0 0
M  V30 13 C 5.1961 -0.4999 0.0 0
M  V30 14 C 3.4641 -0.5 0.0 0
M  V30 15 C 6.0621 1.0 0.0 0
M  V30 16 C 6.0621 0.0 0.0 0
M  V30 17 C 3.4641 -1.5 0.0 0
M  V30 18 O 6.9282 -0.4999 0.0 0
M  V30 19 C 2.598 -1.9999 0.0 0
M  V30 20 C 4.3301 -2.0 0.0 0
M  V30 21 C 6.9282 -1.4999 0.0 0
M  V30 22 O 1.732 -1.4999 0.0 0
M  V30 23 O 2.598 -2.9999 0.0 0
M  V30 24 C 4.3301 -3.0 0.0 0
M  V30 25 C 7.7942 -1.9999 0.0 0
M  V30 26 C 5.1961 -3.5 0.0 0
M  V30 27 C 7.7942 -2.9999 0.0 0
M  V30 28 C 8.6602 -1.4999 0.0 0
M  V30 29 C 8.6602 -3.4999 0.0 0
M  V30 30 C 9.5262 -1.9999 0.0 0
M  V30 31 N 8.6602 -4.4999 0.0 0
M  V30 32 C 9.5262 -2.9999 0.0 0
M  V30 33 C 9.5262 -4.9999 0.0 0
M  V30 34 C 10.3923 -3.4999 0.0 0
M  V30 35 C 10.3923 -4.4999 0.0 0
M  V30 END ATOM
M  V30 BEGIN BOND
M  V30 1 1 1 2
M  V30 2 2 2 3
M  V30 3 1 2 4
M  V30 4 1 3 5
M  V30 5 2 4 6
M  V30 6 2 5 7
M  V30 7 1 7 8
M  V30 8 1 8 9
M  V30 9 1 9 10
M  V30 10 2 10 11
M  V30 11 1 10 12
M  V30 12 1 11 13
M  V30 13 1 11 14
M  V30 14 2 12 15
M  V30 15 2 13 16
M  V30 16 2 14 17
M  V30 17 1 16 18
M  V30 18 1 17 19
M  V30 19 1 17 20
M  V30 20 1 18 21
M  V30 21 2 19 22
M  V30 22 1 19 23
M  V30 23 1 20 24
M  V30 24 1 21 25
M  V30 25 1 24 26
M  V30 26 2 25 27
M  V30 27 1 25 28
M  V30 28 1 27 29
M  V30 29 2 28 30
M  V30 30 2 29 31
M  V30 31 1 29 32
M  V30 32 1 31 33
M  V30 33 2 32 34
M  V30 34 2 33 35
M  V30 35 1 6 7
M  V30 36 1 15 16
M  V30 37 1 30 32
M  V30 38 1 34 35
M  V30 END BOND
M  V30 END CTAB
M  END
>  <Molecule ChEMBL ID>
CHEMBL4465395

>  <Smiles>
CCC/C(=C\c1cc(OCc2ccc3cccnc3c2)ccc1OCc1ccc(F)cc1)C(=O)O

>  <IC50_nM>
23900

>  <Assay Description>
Antagonist actvity in pFA-GAL4-DBD fused PPARgamma LBD (unknown origin) transfected in HEK293T cells assessed as inhibition of rosiglitazone-induced PPARgamma transactivation incubated for 24 hrs by luciferase reporter gene assay

$$$$
CHEMBL257761
Actelion Java MolfileCreator 2.0

  0  0  0  0  0  0              0 V3000
M  V30 BEGIN CTAB
M  V30 COUNTS 40 42 0 0 0
M  V30 BEGIN ATOM
M  V30 1 O 15.5884 -0.75 0.0 0
M  V30 2 C 14.2894 0.0 0.0 0
M  V30 3 O 12.9903 -0.75 0.0 0
M  V30 4 N 14.2894 1.4999 0.0 0
M  V30 5 C 12.9903 -2.25 0.0 0
M  V30 6 C 12.9903 2.2499 0.0 0
M  V30 7 C 15.5884 2.2499 0.0 0
M  V30 8 C 14.2894 -3.0 0.0 0
M  V30 9 C 11.6913 -3.0 0.0 0
M  V30 10 C 11.6913 1.4999 0.0 0
M  V30 11 C 15.5884 3.7499 0.0 0
M  V30 12 C 14.2894 -4.5 0.0 0
M  V30 13 C 11.6913 -4.5 0.0 0
M  V30 14 C 10.3923 2.2499 0.0 0
M  V30 15 C 11.6913 0.0 0.0 0
M  V30 16 O 14.2894 4.4999 0.0 0
M  V30 17 O 16.8874 4.4999 0.0 0
M  V30 18 C 12.9903 -5.25 0.0 0
M  V30 19 C 9.0932 1.5 0.0 0
M  V30 20 C 10.3923 -0.75 0.0 0
M  V30 21 O 12.9903 -6.75 0.0 0
M  V30 22 C 9.0932 0.0 0.0 0
M  V30 23 C 11.6913 -7.5 0.0 0
M  V30 24 O 7.7942 -0.75 0.0 0
M  V30 25 C 6.4951 0.0 0.0 0
M  V30 26 C 5.1961 -0.75 0.0 0
M  V30 27 C 3.8971 0.0 0.0 0
M  V30 28 O 3.8971 1.5 0.0 0
M  V30 29 N 2.598 -0.75 0.0 0
M  V30 30 C 2.598 -2.25 0.0 0
M  V30 31 C 1.299 0.0 0.0 0
M  V30 32 O 1.299 -3.0 0.0 0
M  V30 33 C 3.8971 -3.0 0.0 0
M  V30 34 O 1.299 1.5 0.0 0
M  V30 35 C 0.0 -0.75 0.0 0
M  V30 36 C 3.8971 -4.5 0.0 0
M  V30 37 C 5.1961 -2.25 0.0 0
M  V30 38 C 5.1961 -5.25 0.0 0
M  V30 39 C 6.4951 -3.0 0.0 0
M  V30 40 C 6.4951 -4.5 0.0 0
M  V30 END ATOM
M  V30 BEGIN BOND
M  V30 1 2 1 2
M  V30 2 1 2 3
M  V30 3 1 2 4
M  V30 4 1 3 5
M  V30 5 1 4 6
M  V30 6 1 4 7
M  V30 7 2 5 8
M  V30 8 1 5 9
M  V30 9 1 6 10
M  V30 10 1 7 11
M  V30 11 1 8 12
M  V30 12 2 9 13
M  V30 13 2 10 14
M  V30 14 1 10 15
M  V30 15 2 11 16
M  V30 16 1 11 17
M  V30 17 2 12 18
M  V30 18 1 14 19
M  V30 19 2 15 20
M  V30 20 1 18 21
M  V30 21 2 19 22
M  V30 22 1 21 23
M  V30 23 1 22 24
M  V30 24 1 24 25
M  V30 25 1 25 26
M  V30 26 1 26 27
M  V30 27 2 27 28
M  V30 28 1 27 29
M  V30 29 1 29 30
M  V30 30 1 29 31
M  V30 31 2 30 32
M  V30 32 1 30 33
M  V30 33 2 31 34
M  V30 34 1 31 35
M  V30 35 2 33 36
M  V30 36 1 33 37
M  V30 37 1 36 38
M  V30 38 2 37 39
M  V30 39 2 38 40
M  V30 40 1 13 18
M  V30 41 1 20 22
M  V30 42 1 39 40
M  V30 END BOND
M  V30 END CTAB
M  END
>  <Molecule ChEMBL ID>
CHEMBL257761

>  <Smiles>
COc1ccc(OC(=O)N(CC(=O)O)Cc2ccc(OCCC(=O)N(C(C)=O)C(=O)c3ccccc3)cc2)cc1

>  <IC50_nM>
25000

>  <Assay Description>
Agonist activity at PPAR gamma in human HEK cells by transactivation assay

$$$$
CHEMBL4069463
Actelion Java MolfileCreator 2.0

  0  0  0  0  0  0              0 V3000
M  V30 BEGIN CTAB
M  V30 COUNTS 29 32 0 0 0
M  V30 BEGIN ATOM
M  V30 1 S 4.2731 -2.0877 0.0 0
M  V30 2 C 3.4641 -1.5 0.0 0
M  V30 3 C 3.9641 -3.0388 0.0 0
M  V30 4 N 2.655 -2.0877 0.0 0
M  V30 5 N 3.4641 -0.5 0.0 0
M  V30 6 C 2.9641 -3.0388 0.0 0
M  V30 7 C 4.4641 -3.9048 0.0 0
M  V30 8 C 2.598 0.0 0.0 0
M  V30 9 C 4.3301 0.0 0.0 0
M  V30 10 C 2.4641 -3.9048 0.0 0
M  V30 11 C 3.9641 -4.7708 0.0 0
M  V30 12 C 1.732 -0.5 0.0 0
M  V30 13 C 5.1961 -0.5 0.0 0
M  V30 14 C 2.9641 -4.7708 0.0 0
M  V30 15 O 0.866 0.0 0.0 0
M  V30 16 C 0.0 -0.5 0.0 0
M  V30 17 C -0.866 0.0 0.0 0
M  V30 18 C 0.0 -1.4999 0.0 0
M  V30 19 C -1.732 -0.4999 0.0 0
M  V30 20 C -0.866 -1.9999 0.0 0
M  V30 21 C -1.732 -1.4999 0.0 0
M  V30 22 C -2.598 -1.9999 0.0 0
M  V30 23 C -2.598 -2.9999 0.0 0 CFG=2
M  V30 24 S -3.407 -3.5877 0.0 0
M  V30 25 C -1.789 -3.5877 0.0 0
M  V30 26 C -3.098 -4.5388 0.0 0
M  V30 27 O -0.838 -3.2787 0.0 0
M  V30 28 N -2.098 -4.5388 0.0 0
M  V30 29 O -3.6858 -5.3478 0.0 0
M  V30 END ATOM
M  V30 BEGIN BOND
M  V30 1 1 1 2
M  V30 2 1 1 3
M  V30 3 2 2 4
M  V30 4 1 2 5
M  V30 5 2 3 6
M  V30 6 1 3 7
M  V30 7 1 5 8
M  V30 8 1 5 9
M  V30 9 1 6 10
M  V30 10 2 7 11
M  V30 11 1 8 12
M  V30 12 1 9 13
M  V30 13 2 10 14
M  V30 14 1 12 15
M  V30 15 1 15 16
M  V30 16 2 16 17
M  V30 17 1 16 18
M  V30 18 1 17 19
M  V30 19 2 18 20
M  V30 20 2 19 21
M  V30 21 1 21 22
M  V30 22 1 23 22 CFG=1
M  V30 23 1 23 24
M  V30 24 1 23 25
M  V30 25 1 24 26
M  V30 26 2 25 27
M  V30 27 1 25 28
M  V30 28 2 26 29
M  V30 29 1 4 6
M  V30 30 1 11 14
M  V30 31 1 20 21
M  V30 32 1 26 28
M  V30 END BOND
M  V30 BEGIN COLLECTION
M  V30 MDLV30/STERAC1 ATOMS=(1 23)
M  V30 END COLLECTION
M  V30 END CTAB
M  END
>  <Molecule ChEMBL ID>
CHEMBL4069463

>  <Smiles>
CCN(CCOc1ccc(CC2SC(=O)NC2=O)cc1)c1nc2ccccc2s1

>  <IC50_nM>
25000

>  <Assay Description>
Transrepression activity at human PPARgamma expressed in HEK293 cells assessed as inhibition of TNFalpha induced NF-kappaB promoter activity pretreated for 4 hrs followed by TNFalpha stimulation after 3 hrs by luciferase reporter gene assay

$$$$
CHEMBL254347
Actelion Java MolfileCreator 2.0

  0  0  0  0  0  0              0 V3000
M  V30 BEGIN CTAB
M  V30 COUNTS 38 41 0 0 0
M  V30 BEGIN ATOM
M  V30 1 O 3.4641 -1.5 0.0 0
M  V30 2 C 3.4641 -0.5 0.0 0
M  V30 3 O 4.3301 0.0 0.0 0
M  V30 4 N 2.598 0.0 0.0 0
M  V30 5 C 5.1961 -0.5 0.0 0
M  V30 6 C 2.598 1.0 0.0 0
M  V30 7 C 1.732 -0.5 0.0 0
M  V30 8 C 5.1961 -1.5 0.0 0
M  V30 9 C 6.0621 0.0 0.0 0
M  V30 10 C 1.732 1.5 0.0 0
M  V30 11 C 1.732 -1.5 0.0 0
M  V30 12 C 6.0621 -2.0 0.0 0
M  V30 13 C 6.9282 -0.5 0.0 0
M  V30 14 C 1.732 2.5 0.0 0
M  V30 15 C 0.866 1.0 0.0 0
M  V30 16 O 2.598 -2.0 0.0 0
M  V30 17 O 0.866 -2.0 0.0 0
M  V30 18 C 6.9282 -1.5 0.0 0
M  V30 19 C 0.866 3.0 0.0 0
M  V30 20 C 0.0 1.5 0.0 0
M  V30 21 O 7.7942 -2.0 0.0 0
M  V30 22 C 0.0 2.5 0.0 0
M  V30 23 O -0.866 3.0 0.0 0
M  V30 24 C -1.732 2.5 0.0 0
M  V30 25 C -2.598 3.0 0.0 0
M  V30 26 C -3.4641 2.5 0.0 0
M  V30 27 N -4.3776 2.9067 0.0 0
M  V30 28 C -3.5686 1.5054 0.0 0
M  V30 29 C -5.0467 2.1635 0.0 0
M  V30 30 O -4.5467 1.2975 0.0 0
M  V30 31 C -2.8254 0.8363 0.0 0
M  V30 32 C -6.0412 2.2681 0.0 0
M  V30 33 O -1.8744 1.1453 0.0 0
M  V30 34 C -6.448 3.1816 0.0 0
M  V30 35 C -6.629 1.4591 0.0 0
M  V30 36 C -7.4425 3.2861 0.0 0
M  V30 37 C -7.6236 1.5636 0.0 0
M  V30 38 C -8.0303 2.4771 0.0 0
M  V30 END ATOM
M  V30 BEGIN BOND
M  V30 1 2 1 2
M  V30 2 1 2 3
M  V30 3 1 2 4
M  V30 4 1 3 5
M  V30 5 1 4 6
M  V30 6 1 4 7
M  V30 7 2 5 8
M  V30 8 1 5 9
M  V30 9 1 6 10
M  V30 10 1 7 11
M  V30 11 1 8 12
M  V30 12 2 9 13
M  V30 13 2 10 14
M  V30 14 1 10 15
M  V30 15 2 11 16
M  V30 16 1 11 17
M  V30 17 2 12 18
M  V30 18 1 14 19
M  V30 19 2 15 20
M  V30 20 1 18 21
M  V30 21 2 19 22
M  V30 22 1 22 23
M  V30 23 1 23 24
M  V30 24 1 24 25
M  V30 25 1 25 26
M  V30 26 1 26 27
M  V30 27 2 26 28
M  V30 28 2 27 29
M  V30 29 1 28 30
M  V30 30 1 28 31
M  V30 31 1 29 32
M  V30 32 1 31 33
M  V30 33 2 32 34
M  V30 34 1 32 35
M  V30 35 1 34 36
M  V30 36 2 35 37
M  V30 37 2 36 38
M  V30 38 1 13 18
M  V30 39 1 20 22
M  V30 40 1 29 30
M  V30 41 1 37 38
M  V30 END BOND
M  V30 END CTAB
M  END
>  <Molecule ChEMBL ID>
CHEMBL254347

>  <Smiles>
O=C(O)CN(Cc1ccc(OCCc2nc(-c3ccccc3)oc2CO)cc1)C(=O)Oc1ccc(O)cc1

>  <IC50_nM>
25000

>  <Assay Description>
Agonist activity at PPAR gamma in human HEK cells by transactivation assay

$$$$
CHEMBL981
Actelion Java MolfileCreator 2.0

  0  0  0  0  0  0              0 V3000
M  V30 BEGIN CTAB
M  V30 COUNTS 22 23 0 0 0
M  V30 BEGIN ATOM
M  V30 1 Cl 9.0932 -9.0 0.0 0
M  V30 2 C 9.0932 -7.5 0.0 0
M  V30 3 C 10.3923 -6.75 0.0 0
M  V30 4 C 7.7942 -6.75 0.0 0
M  V30 5 C 10.3923 -5.25 0.0 0
M  V30 6 C 7.7942 -5.25 0.0 0
M  V30 7 C 9.0932 -4.5 0.0 0
M  V30 8 C 9.0932 -3.0 0.0 0
M  V30 9 O 10.3923 -2.25 0.0 0
M  V30 10 C 7.7942 -2.25 0.0 0
M  V30 11 C 7.7942 -0.75 0.0 0
M  V30 12 C 6.4952 -3.0 0.0 0
M  V30 13 C 6.4952 0.0 0.0 0
M  V30 14 C 5.1961 -2.25 0.0 0
M  V30 15 C 5.1961 -0.75 0.0 0
M  V30 16 O 3.8971 0.0 0.0 0
M  V30 17 C 2.598 -0.75 0.0 0
M  V30 18 C 1.299 0.0 0.0 0
M  V30 19 C 1.848 -2.049 0.0 0
M  V30 20 C 3.348 -2.049 0.0 0
M  V30 21 O 1.299 1.5 0.0 0
M  V30 22 O 0.0 -0.75 0.0 0
M  V30 END ATOM
M  V30 BEGIN BOND
M  V30 1 1 1 2
M  V30 2 2 2 3
M  V30 3 1 2 4
M  V30 4 1 3 5
M  V30 5 2 4 6
M  V30 6 2 5 7
M  V30 7 1 7 8
M  V30 8 2 8 9
M  V30 9 1 8 10
M  V30 10 2 10 11
M  V30 11 1 10 12
M  V30 12 1 11 13
M  V30 13 2 12 14
M  V30 14 2 13 15
M  V30 15 1 15 16
M  V30 16 1 16 17
M  V30 17 1 17 18
M  V30 18 1 17 19
M  V30 19 1 17 20
M  V30 20 2 18 21
M  V30 21 1 18 22
M  V30 22 1 6 7
M  V30 23 1 14 15
M  V30 END BOND
M  V30 END CTAB
M  END
>  <Molecule ChEMBL ID>
CHEMBL981

>  <Smiles>
CC(C)(Oc1ccc(C(=O)c2ccc(Cl)cc2)cc1)C(=O)O

>  <IC50_nM>
25000

>  <Assay Description>
Inhibition of human Peroxisome proliferator activated receptor gamma

$$$$
CHEMBL429671
Actelion Java MolfileCreator 2.0

  0  0  0  0  0  0              0 V3000
M  V30 BEGIN CTAB
M  V30 COUNTS 39 42 0 0 0
M  V30 BEGIN ATOM
M  V30 1 O 3.4641 -1.5 0.0 0
M  V30 2 C 3.4641 -0.5 0.0 0
M  V30 3 O 4.3301 0.0 0.0 0
M  V30 4 N 2.598 0.0 0.0 0
M  V30 5 C 5.1961 -0.5 0.0 0
M  V30 6 C 2.598 1.0 0.0 0
M  V30 7 C 1.732 -0.5 0.0 0
M  V30 8 C 5.1961 -1.5 0.0 0
M  V30 9 C 6.0621 0.0 0.0 0
M  V30 10 C 1.732 1.5 0.0 0
M  V30 11 C 1.732 -1.5 0.0 0
M  V30 12 C 6.0621 -2.0 0.0 0
M  V30 13 C 6.9282 -0.5 0.0 0
M  V30 14 C 1.732 2.5 0.0 0
M  V30 15 C 0.866 1.0 0.0 0
M  V30 16 O 2.598 -2.0 0.0 0
M  V30 17 O 0.866 -2.0 0.0 0
M  V30 18 C 6.9282 -1.5 0.0 0
M  V30 19 C 0.866 3.0 0.0 0
M  V30 20 C 0.0 1.5 0.0 0
M  V30 21 O 7.7942 -2.0 0.0 0
M  V30 22 C 0.0 2.5 0.0 0
M  V30 23 C 8.6602 -1.5 0.0 0
M  V30 24 O -0.866 3.0 0.0 0
M  V30 25 C -1.732 2.5 0.0 0
M  V30 26 C -2.598 3.0 0.0 0
M  V30 27 C -3.4641 2.5 0.0 0
M  V30 28 N -4.3776 2.9067 0.0 0
M  V30 29 C -3.5686 1.5054 0.0 0
M  V30 30 C -5.0467 2.1635 0.0 0
M  V30 31 O -4.5467 1.2975 0.0 0
M  V30 32 C -2.8254 0.8363 0.0 0
M  V30 33 C -6.0412 2.2681 0.0 0
M  V30 34 O -1.8744 1.1453 0.0 0
M  V30 35 C -6.448 3.1816 0.0 0
M  V30 36 C -6.629 1.4591 0.0 0
M  V30 37 C -7.4425 3.2861 0.0 0
M  V30 38 C -7.6236 1.5636 0.0 0
M  V30 39 C -8.0303 2.4771 0.0 0
M  V30 END ATOM
M  V30 BEGIN BOND
M  V30 1 2 1 2
M  V30 2 1 2 3
M  V30 3 1 2 4
M  V30 4 1 3 5
M  V30 5 1 4 6
M  V30 6 1 4 7
M  V30 7 2 5 8
M  V30 8 1 5 9
M  V30 9 1 6 10
M  V30 10 1 7 11
M  V30 11 1 8 12
M  V30 12 2 9 13
M  V30 13 2 10 14
M  V30 14 1 10 15
M  V30 15 2 11 16
M  V30 16 1 11 17
M  V30 17 2 12 18
M  V30 18 1 14 19
M  V30 19 2 15 20
M  V30 20 1 18 21
M  V30 21 2 19 22
M  V30 22 1 21 23
M  V30 23 1 22 24
M  V30 24 1 24 25
M  V30 25 1 25 26
M  V30 26 1 26 27
M  V30 27 1 27 28
M  V30 28 2 27 29
M  V30 29 2 28 30
M  V30 30 1 29 31
M  V30 31 1 29 32
M  V30 32 1 30 33
M  V30 33 1 32 34
M  V30 34 2 33 35
M  V30 35 1 33 36
M  V30 36 1 35 37
M  V30 37 2 36 38
M  V30 38 2 37 39
M  V30 39 1 13 18
M  V30 40 1 20 22
M  V30 41 1 30 31
M  V30 42 1 38 39
M  V30 END BOND
M  V30 END CTAB
M  END
>  <Molecule ChEMBL ID>
CHEMBL429671

>  <Smiles>
COc1ccc(OC(=O)N(CC(=O)O)Cc2ccc(OCCc3nc(-c4ccccc4)oc3CO)cc2)cc1

>  <IC50_nM>
25000

>  <Assay Description>
Agonist activity at PPAR gamma in human HEK cells by transactivation assay

$$$$
CHEMBL3109597
Actelion Java MolfileCreator 2.0

  0  0  0  0  0  0              0 V3000
M  V30 BEGIN CTAB
M  V30 COUNTS 33 36 0 0 0
M  V30 BEGIN ATOM
M  V30 1 F 6.5621 1.866 0.0 0
M  V30 2 C 6.0621 1.0 0.0 0
M  V30 3 F 6.9282 0.5 0.0 0
M  V30 4 F 5.5621 0.1339 0.0 0
M  V30 5 O 5.1961 1.5 0.0 0
M  V30 6 C 4.3301 1.0 0.0 0
M  V30 7 C 3.4641 1.5 0.0 0
M  V30 8 C 4.3301 0.0 0.0 0
M  V30 9 C 2.598 0.9999 0.0 0
M  V30 10 C 3.4641 -0.4999 0.0 0
M  V30 11 C 2.598 0.0 0.0 0
M  V30 12 C 1.732 -0.5 0.0 0 CFG=1
M  V30 13 N 0.866 0.0 0.0 0
M  V30 14 C 1.732 -1.5 0.0 0
M  V30 15 C 0.866 0.9999 0.0 0
M  V30 16 C 0.923 -2.0877 0.0 0
M  V30 17 C 2.541 -2.0877 0.0 0
M  V30 18 C 0.0 1.4999 0.0 0
M  V30 19 C 1.732 1.5 0.0 0
M  V30 20 C 1.232 -3.0388 0.0 0
M  V30 21 C -0.0551 -1.8798 0.0 0
M  V30 22 N 2.232 -3.0388 0.0 0
M  V30 23 C 3.4921 -1.7787 0.0 0
M  V30 24 C 0.0 2.4999 0.0 0
M  V30 25 C 1.732 2.5 0.0 0
M  V30 26 C 0.5629 -3.7819 0.0 0
M  V30 27 C -0.7242 -2.623 0.0 0
M  V30 28 O -0.866 2.9999 0.0 0
M  V30 29 C 0.866 2.9999 0.0 0
M  V30 30 C -0.4152 -3.574 0.0 0
M  V30 31 C -0.866 3.9999 0.0 0
M  V30 32 O 0.866 4.0 0.0 0
M  V30 33 C 1.732 4.5 0.0 0
M  V30 END ATOM
M  V30 BEGIN BOND
M  V30 1 1 1 2
M  V30 2 1 2 3
M  V30 3 1 2 4
M  V30 4 1 2 5
M  V30 5 1 5 6
M  V30 6 2 6 7
M  V30 7 1 6 8
M  V30 8 1 7 9
M  V30 9 2 8 10
M  V30 10 2 9 11
M  V30 11 1 11 12
M  V30 12 1 12 13 CFG=3
M  V30 13 1 12 14
M  V30 14 1 13 15
M  V30 15 1 14 16
M  V30 16 2 14 17
M  V30 17 2 15 18
M  V30 18 1 15 19
M  V30 19 2 16 20
M  V30 20 1 16 21
M  V30 21 1 17 22
M  V30 22 1 17 23
M  V30 23 1 18 24
M  V30 24 2 19 25
M  V30 25 1 20 26
M  V30 26 2 21 27
M  V30 27 1 24 28
M  V30 28 2 24 29
M  V30 29 2 26 30
M  V30 30 1 28 31
M  V30 31 1 29 32
M  V30 32 1 32 33
M  V30 33 1 10 11
M  V30 34 1 20 22
M  V30 35 1 25 29
M  V30 36 1 27 30
M  V30 END BOND
M  V30 BEGIN COLLECTION
M  V30 MDLV30/STERAC1 ATOMS=(1 12)
M  V30 END COLLECTION
M  V30 END CTAB
M  END
>  <Molecule ChEMBL ID>
CHEMBL3109597

>  <Smiles>
COc1ccc(NC(c2ccc(OC(F)(F)F)cc2)c2c(C)[nH]c3ccccc23)cc1OC

>  <IC50_nM>
25000

>  <Assay Description>
Inhibition of rosiglitazone-induced PPAR-gamma (unknown origin)-mediated transcription expressed in HEK293T cells after 16 hrs by luciferase reporter gene assay

$$$$
CHEMBL254989
Actelion Java MolfileCreator 2.0

  0  0  0  0  0  0              0 V3000
M  V30 BEGIN CTAB
M  V30 COUNTS 37 40 0 0 0
M  V30 BEGIN ATOM
M  V30 1 O 3.4641 -1.5 0.0 0
M  V30 2 C 3.4641 -0.5 0.0 0
M  V30 3 O 4.3301 0.0 0.0 0
M  V30 4 N 2.598 0.0 0.0 0
M  V30 5 C 5.1961 -0.5 0.0 0
M  V30 6 C 2.598 1.0 0.0 0
M  V30 7 C 1.732 -0.5 0.0 0
M  V30 8 C 5.1961 -1.5 0.0 0
M  V30 9 C 6.0621 0.0 0.0 0
M  V30 10 C 1.732 1.5 0.0 0
M  V30 11 C 1.732 -1.5 0.0 0
M  V30 12 C 6.0621 -2.0 0.0 0
M  V30 13 C 6.9282 -0.5 0.0 0
M  V30 14 C 1.732 2.5 0.0 0
M  V30 15 C 0.866 1.0 0.0 0
M  V30 16 O 2.598 -2.0 0.0 0
M  V30 17 O 0.866 -2.0 0.0 0
M  V30 18 C 6.9282 -1.5 0.0 0
M  V30 19 C 0.866 3.0 0.0 0
M  V30 20 C 0.0 1.5 0.0 0
M  V30 21 O 7.7942 -2.0 0.0 0
M  V30 22 C 0.0 2.5 0.0 0
M  V30 23 O -0.866 3.0 0.0 0
M  V30 24 C -1.732 2.5 0.0 0
M  V30 25 C -2.598 3.0 0.0 0
M  V30 26 C -3.4641 2.5 0.0 0
M  V30 27 N -4.3776 2.9067 0.0 0
M  V30 28 C -3.5686 1.5054 0.0 0
M  V30 29 C -5.0467 2.1635 0.0 0
M  V30 30 O -4.5467 1.2975 0.0 0
M  V30 31 C -2.8254 0.8363 0.0 0
M  V30 32 C -6.0412 2.2681 0.0 0
M  V30 33 C -6.448 3.1816 0.0 0
M  V30 34 C -6.629 1.4591 0.0 0
M  V30 35 C -7.4425 3.2861 0.0 0
M  V30 36 C -7.6236 1.5636 0.0 0
M  V30 37 C -8.0303 2.4771 0.0 0
M  V30 END ATOM
M  V30 BEGIN BOND
M  V30 1 2 1 2
M  V30 2 1 2 3
M  V30 3 1 2 4
M  V30 4 1 3 5
M  V30 5 1 4 6
M  V30 6 1 4 7
M  V30 7 2 5 8
M  V30 8 1 5 9
M  V30 9 1 6 10
M  V30 10 1 7 11
M  V30 11 1 8 12
M  V30 12 2 9 13
M  V30 13 2 10 14
M  V30 14 1 10 15
M  V30 15 2 11 16
M  V30 16 1 11 17
M  V30 17 2 12 18
M  V30 18 1 14 19
M  V30 19 2 15 20
M  V30 20 1 18 21
M  V30 21 2 19 22
M  V30 22 1 22 23
M  V30 23 1 23 24
M  V30 24 1 24 25
M  V30 25 1 25 26
M  V30 26 1 26 27
M  V30 27 2 26 28
M  V30 28 2 27 29
M  V30 29 1 28 30
M  V30 30 1 28 31
M  V30 31 1 29 32
M  V30 32 2 32 33
M  V30 33 1 32 34
M  V30 34 1 33 35
M  V30 35 2 34 36
M  V30 36 2 35 37
M  V30 37 1 13 18
M  V30 38 1 20 22
M  V30 39 1 29 30
M  V30 40 1 36 37
M  V30 END BOND
M  V30 END CTAB
M  END
>  <Molecule ChEMBL ID>
CHEMBL254989

>  <Smiles>
Cc1oc(-c2ccccc2)nc1CCOc1ccc(CN(CC(=O)O)C(=O)Oc2ccc(O)cc2)cc1

>  <IC50_nM>
25000

>  <Assay Description>
Agonist activity at PPAR gamma in human HEK cells by transactivation assay

$$$$
CHEMBL401829
Actelion Java MolfileCreator 2.0

  0  0  0  0  0  0              0 V3000
M  V30 BEGIN CTAB
M  V30 COUNTS 37 39 0 0 0
M  V30 BEGIN ATOM
M  V30 1 O 15.5884 -0.75 0.0 0
M  V30 2 C 14.2894 0.0 0.0 0
M  V30 3 O 12.9903 -0.75 0.0 0
M  V30 4 N 14.2894 1.4999 0.0 0
M  V30 5 C 12.9903 -2.25 0.0 0
M  V30 6 C 12.9903 2.2499 0.0 0
M  V30 7 C 15.5884 2.2499 0.0 0
M  V30 8 C 14.2894 -3.0 0.0 0
M  V30 9 C 11.6913 -3.0 0.0 0
M  V30 10 C 11.6913 1.4999 0.0 0
M  V30 11 C 15.5884 3.7499 0.0 0
M  V30 12 C 14.2894 -4.5 0.0 0
M  V30 13 C 11.6913 -4.5 0.0 0
M  V30 14 C 10.3923 2.2499 0.0 0
M  V30 15 C 11.6913 0.0 0.0 0
M  V30 16 O 14.2894 4.4999 0.0 0
M  V30 17 O 16.8874 4.4999 0.0 0
M  V30 18 C 12.9903 -5.25 0.0 0
M  V30 19 C 9.0932 1.5 0.0 0
M  V30 20 C 10.3923 -0.75 0.0 0
M  V30 21 O 12.9903 -6.75 0.0 0
M  V30 22 C 9.0932 0.0 0.0 0
M  V30 23 C 11.6913 -7.5 0.0 0
M  V30 24 O 7.7942 -0.75 0.0 0
M  V30 25 C 6.4951 0.0 0.0 0
M  V30 26 C 5.1961 -0.75 0.0 0
M  V30 27 C 3.8971 0.0 0.0 0
M  V30 28 O 3.8971 1.5 0.0 0
M  V30 29 N 2.598 -0.75 0.0 0
M  V30 30 C 1.299 0.0 0.0 0
M  V30 31 O 1.299 1.5 0.0 0
M  V30 32 C 0.0 -0.75 0.0 0
M  V30 33 C -1.299 0.0 0.0 0
M  V30 34 C 0.0 -2.25 0.0 0
M  V30 35 C -2.598 -0.7499 0.0 0
M  V30 36 C -1.299 -2.9999 0.0 0
M  V30 37 C -2.598 -2.2499 0.0 0
M  V30 END ATOM
M  V30 BEGIN BOND
M  V30 1 2 1 2
M  V30 2 1 2 3
M  V30 3 1 2 4
M  V30 4 1 3 5
M  V30 5 1 4 6
M  V30 6 1 4 7
M  V30 7 2 5 8
M  V30 8 1 5 9
M  V30 9 1 6 10
M  V30 10 1 7 11
M  V30 11 1 8 12
M  V30 12 2 9 13
M  V30 13 2 10 14
M  V30 14 1 10 15
M  V30 15 2 11 16
M  V30 16 1 11 17
M  V30 17 2 12 18
M  V30 18 1 14 19
M  V30 19 2 15 20
M  V30 20 1 18 21
M  V30 21 2 19 22
M  V30 22 1 21 23
M  V30 23 1 22 24
M  V30 24 1 24 25
M  V30 25 1 25 26
M  V30 26 1 26 27
M  V30 27 2 27 28
M  V30 28 1 27 29
M  V30 29 1 29 30
M  V30 30 2 30 31
M  V30 31 1 30 32
M  V30 32 2 32 33
M  V30 33 1 32 34
M  V30 34 1 33 35
M  V30 35 2 34 36
M  V30 36 2 35 37
M  V30 37 1 13 18
M  V30 38 1 20 22
M  V30 39 1 36 37
M  V30 END BOND
M  V30 END CTAB
M  END
>  <Molecule ChEMBL ID>
CHEMBL401829

>  <Smiles>
COc1ccc(OC(=O)N(CC(=O)O)Cc2ccc(OCCC(=O)NC(=O)c3ccccc3)cc2)cc1

>  <IC50_nM>
25000

>  <Assay Description>
Agonist activity at PPAR gamma in human HEK cells by transactivation assay

$$$$
CHEMBL3311308
Actelion Java MolfileCreator 2.0

  0  0  0  0  0  0              0 V3000
M  V30 BEGIN CTAB
M  V30 COUNTS 21 22 0 0 0
M  V30 BEGIN ATOM
M  V30 1 S 2.598 -0.75 0.0 0
M  V30 2 O 1.848 -2.049 0.0 0
M  V30 3 O 3.348 -2.049 0.0 0
M  V30 4 N 1.299 0.0 0.0 0
M  V30 5 C 3.8971 0.0 0.0 0
M  V30 6 C 0.0 -0.75 0.0 0
M  V30 7 C 5.1961 -0.75 0.0 0
M  V30 8 C 3.8971 1.5 0.0 0
M  V30 9 C -1.299 0.0 0.0 0
M  V30 10 C 0.0 -2.25 0.0 0
M  V30 11 C 6.4952 0.0 0.0 0
M  V30 12 C 5.1961 2.25 0.0 0
M  V30 13 C -2.598 -0.75 0.0 0
M  V30 14 C -1.299 1.5 0.0 0
M  V30 15 C -1.299 -3.0 0.0 0
M  V30 16 C 1.299 -3.0 0.0 0
M  V30 17 C 6.4952 1.5 0.0 0
M  V30 18 C -2.598 -2.25 0.0 0
M  V30 19 O 7.7942 2.25 0.0 0
M  V30 20 C -3.8971 -3.0 0.0 0
M  V30 21 C 7.7942 3.75 0.0 0
M  V30 END ATOM
M  V30 BEGIN BOND
M  V30 1 2 1 2
M  V30 2 2 1 3
M  V30 3 1 1 4
M  V30 4 1 1 5
M  V30 5 1 4 6
M  V30 6 2 5 7
M  V30 7 1 5 8
M  V30 8 2 6 9
M  V30 9 1 6 10
M  V30 10 1 7 11
M  V30 11 2 8 12
M  V30 12 1 9 13
M  V30 13 1 9 14
M  V30 14 2 10 15
M  V30 15 1 10 16
M  V30 16 2 11 17
M  V30 17 2 13 18
M  V30 18 1 17 19
M  V30 19 1 18 20
M  V30 20 1 19 21
M  V30 21 1 12 17
M  V30 22 1 15 18
M  V30 END BOND
M  V30 END CTAB
M  END
>  <Molecule ChEMBL ID>
CHEMBL3311308

>  <Smiles>
COc1ccc(S(=O)(=O)Nc2c(C)cc(C)cc2C)cc1

>  <IC50_nM>
25118.9

>  <Assay Description>
Binding affinity to human PPARgamma by SPA/summary (Abse5) assay

$$$$
CHEMBL3311308
Actelion Java MolfileCreator 2.0

  0  0  0  0  0  0              0 V3000
M  V30 BEGIN CTAB
M  V30 COUNTS 21 22 0 0 0
M  V30 BEGIN ATOM
M  V30 1 S 2.598 -0.75 0.0 0
M  V30 2 O 1.848 -2.049 0.0 0
M  V30 3 O 3.348 -2.049 0.0 0
M  V30 4 N 1.299 0.0 0.0 0
M  V30 5 C 3.8971 0.0 0.0 0
M  V30 6 C 0.0 -0.75 0.0 0
M  V30 7 C 5.1961 -0.75 0.0 0
M  V30 8 C 3.8971 1.5 0.0 0
M  V30 9 C -1.299 0.0 0.0 0
M  V30 10 C 0.0 -2.25 0.0 0
M  V30 11 C 6.4952 0.0 0.0 0
M  V30 12 C 5.1961 2.25 0.0 0
M  V30 13 C -2.598 -0.75 0.0 0
M  V30 14 C -1.299 1.5 0.0 0
M  V30 15 C -1.299 -3.0 0.0 0
M  V30 16 C 1.299 -3.0 0.0 0
M  V30 17 C 6.4952 1.5 0.0 0
M  V30 18 C -2.598 -2.25 0.0 0
M  V30 19 O 7.7942 2.25 0.0 0
M  V30 20 C -3.8971 -3.0 0.0 0
M  V30 21 C 7.7942 3.75 0.0 0
M  V30 END ATOM
M  V30 BEGIN BOND
M  V30 1 2 1 2
M  V30 2 2 1 3
M  V30 3 1 1 4
M  V30 4 1 1 5
M  V30 5 1 4 6
M  V30 6 2 5 7
M  V30 7 1 5 8
M  V30 8 2 6 9
M  V30 9 1 6 10
M  V30 10 1 7 11
M  V30 11 2 8 12
M  V30 12 1 9 13
M  V30 13 1 9 14
M  V30 14 2 10 15
M  V30 15 1 10 16
M  V30 16 2 11 17
M  V30 17 2 13 18
M  V30 18 1 17 19
M  V30 19 1 18 20
M  V30 20 1 19 21
M  V30 21 1 12 17
M  V30 22 1 15 18
M  V30 END BOND
M  V30 END CTAB
M  END
>  <Molecule ChEMBL ID>
CHEMBL3311308

>  <Smiles>
COc1ccc(S(=O)(=O)Nc2c(C)cc(C)cc2C)cc1

>  <IC50_nM>
25118.9

>  <Assay Description>
Binding affinity to human PPARgamma by SPA/Abse5 assay

$$$$
CHEMBL477627
Actelion Java MolfileCreator 2.0

  0  0  0  0  0  0              0 V3000
M  V30 BEGIN CTAB
M  V30 COUNTS 23 24 0 0 0
M  V30 BEGIN ATOM
M  V30 1 O 5.1961 1.4999 0.0 0
M  V30 2 C 4.3301 0.9999 0.0 0
M  V30 3 O 3.4641 1.5 0.0 0
M  V30 4 C 4.3301 0.0 0.0 0 CFG=1
M  V30 5 N 3.4641 -0.5 0.0 0
M  V30 6 C 5.1961 -0.5 0.0 0
M  V30 7 C 2.598 0.0 0.0 0
M  V30 8 C 6.0621 0.0 0.0 0
M  V30 9 O 2.598 1.0 0.0 0
M  V30 10 C 1.732 -0.5 0.0 0 CFG=1
M  V30 11 C 6.9282 -0.5 0.0 0
M  V30 12 C 6.0621 0.9999 0.0 0
M  V30 13 N 1.732 -1.5 0.0 0
M  V30 14 C 0.866 0.0 0.0 0
M  V30 15 C 0.0 -0.5 0.0 0
M  V30 16 C -0.9135 -0.0932 0.0 0
M  V30 17 C -0.1045 -1.4945 0.0 0
M  V30 18 C -1.5826 -0.8364 0.0 0
M  V30 19 C -1.2225 0.8577 0.0 0
M  V30 20 N -1.0826 -1.7024 0.0 0
M  V30 21 C -2.5608 -0.6284 0.0 0
M  V30 22 C -2.2007 1.0657 0.0 0
M  V30 23 C -2.8698 0.3225 0.0 0
M  V30 END ATOM
M  V30 BEGIN BOND
M  V30 1 2 1 2
M  V30 2 1 2 3
M  V30 3 1 2 4
M  V30 4 1 4 5 CFG=3
M  V30 5 1 4 6
M  V30 6 1 5 7
M  V30 7 1 6 8
M  V30 8 2 7 9
M  V30 9 1 7 10
M  V30 10 1 8 11
M  V30 11 1 8 12
M  V30 12 1 10 13 CFG=1
M  V30 13 1 10 14
M  V30 14 1 14 15
M  V30 15 1 15 16
M  V30 16 2 15 17
M  V30 17 2 16 18
M  V30 18 1 16 19
M  V30 19 1 17 20
M  V30 20 1 18 21
M  V30 21 2 19 22
M  V30 22 2 21 23
M  V30 23 1 18 20
M  V30 24 1 22 23
M  V30 END BOND
M  V30 BEGIN COLLECTION
M  V30 MDLV30/STEABS ATOMS=(2 4 10)
M  V30 END COLLECTION
M  V30 END CTAB
M  END
>  <Molecule ChEMBL ID>
CHEMBL477627

>  <Smiles>
CC(C)C[C@H](NC(=O)[C@@H](N)Cc1c[nH]c2ccccc12)C(=O)O

>  <IC50_nM>
25800

>  <Assay Description>
Antagonist activity at human PPARgamma receptor expressed in Saccharomyces cerevisiae AH109 co-transfected with mouse CBP assessed as inhibition of rosiglitazone-induced LBD-CBP interaction by alpha-galactosidase based yeast two hybrid assay

$$$$
CHEMBL478726
Actelion Java MolfileCreator 2.0

  0  0  0  0  0  0              0 V3000
M  V30 BEGIN CTAB
M  V30 COUNTS 32 35 0 0 0
M  V30 BEGIN ATOM
M  V30 1 O 3.4641 -0.5 0.0 0
M  V30 2 C 2.598 0.0 0.0 0
M  V30 3 O 2.598 1.0 0.0 0
M  V30 4 C 1.732 -0.5 0.0 0 CFG=1
M  V30 5 C 1.732 -1.5 0.0 0
M  V30 6 C 0.866 0.0 0.0 0
M  V30 7 C 0.866 -1.9999 0.0 0
M  V30 8 C 2.598 -2.0 0.0 0
M  V30 9 C 0.0 -0.5 0.0 0
M  V30 10 N 0.866 -2.9999 0.0 0
M  V30 11 C 2.598 -3.0 0.0 0
M  V30 12 C -0.866 0.0 0.0 0
M  V30 13 C 0.0 -1.4999 0.0 0
M  V30 14 C 1.732 -3.5 0.0 0
M  V30 15 C -1.732 -0.4999 0.0 0
M  V30 16 C -0.866 -1.9999 0.0 0
M  V30 17 C -1.732 -1.4999 0.0 0
M  V30 18 C -2.598 -1.9999 0.0 0
M  V30 19 C -3.4641 -2.4999 0.0 0
M  V30 20 C -4.3301 -2.9999 0.0 0
M  V30 21 C -4.3301 -3.9999 0.0 0
M  V30 22 N -5.1391 -4.5877 0.0 0
M  V30 23 C -3.5211 -4.5877 0.0 0
M  V30 24 C -4.8301 -5.5388 0.0 0
M  V30 25 O -3.8301 -5.5388 0.0 0
M  V30 26 C -2.57 -4.2787 0.0 0
M  V30 27 C -5.4179 -6.3478 0.0 0
M  V30 28 C -6.4124 -6.2433 0.0 0
M  V30 29 C -5.0111 -7.2614 0.0 0
M  V30 30 C -7.0002 -7.0523 0.0 0
M  V30 31 C -5.5989 -8.0704 0.0 0
M  V30 32 C -6.5934 -7.9658 0.0 0
M  V30 END ATOM
M  V30 BEGIN BOND
M  V30 1 2 1 2
M  V30 2 1 2 3
M  V30 3 1 2 4
M  V30 4 1 4 5
M  V30 5 1 4 6 CFG=1
M  V30 6 2 5 7
M  V30 7 1 5 8
M  V30 8 1 6 9
M  V30 9 1 7 10
M  V30 10 2 8 11
M  V30 11 2 9 12
M  V30 12 1 9 13
M  V30 13 2 10 14
M  V30 14 1 12 15
M  V30 15 2 13 16
M  V30 16 2 15 17
M  V30 17 1 17 18
M  V30 18 3 18 19
M  V30 19 1 19 20
M  V30 20 1 20 21
M  V30 21 1 21 22
M  V30 22 2 21 23
M  V30 23 2 22 24
M  V30 24 1 23 25
M  V30 25 1 23 26
M  V30 26 1 24 27
M  V30 27 2 27 28
M  V30 28 1 27 29
M  V30 29 1 28 30
M  V30 30 2 29 31
M  V30 31 2 30 32
M  V30 32 1 11 14
M  V30 33 1 16 17
M  V30 34 1 24 25
M  V30 35 1 31 32
M  V30 END BOND
M  V30 BEGIN COLLECTION
M  V30 MDLV30/STERAC1 ATOMS=(1 4)
M  V30 END COLLECTION
M  V30 END CTAB
M  END
>  <Molecule ChEMBL ID>
CHEMBL478726

>  <Smiles>
Cc1oc(-c2ccccc2)nc1CC#Cc1ccc(CC(C(=O)O)c2cccnc2)cc1

>  <IC50_nM>
26000

>  <Assay Description>
Displacement of [3H]darglitazone from human PPARgamma by scintillation proximity assay

$$$$
CHEMBL1373918
Actelion Java MolfileCreator 2.0

  0  0  0  0  0  0              0 V3000
M  V30 BEGIN CTAB
M  V30 COUNTS 20 21 0 0 0
M  V30 BEGIN ATOM
M  V30 1 O 2.598 0.0 0.0 0
M  V30 2 C 1.732 -0.5 0.0 0
M  V30 3 C 1.732 -1.5 0.0 0
M  V30 4 C 0.866 0.0 0.0 0 CFG=1
M  V30 5 C 0.866 -1.9999 0.0 0
M  V30 6 C 2.598 -2.0 0.0 0
M  V30 7 C 0.866 1.0 0.0 0
M  V30 8 C 0.0 -0.5 0.0 0
M  V30 9 O 0.0 -1.4999 0.0 0
M  V30 10 C 0.866 -2.9999 0.0 0
M  V30 11 C 2.598 -3.0 0.0 0
M  V30 12 C 1.732 1.5 0.0 0
M  V30 13 C 0.0 1.4999 0.0 0
M  V30 14 C 1.732 -3.5 0.0 0
M  V30 15 C 1.732 2.4999 0.0 0
M  V30 16 C 0.0 2.4999 0.0 0
M  V30 17 O 1.732 -4.5 0.0 0
M  V30 18 C 0.866 2.9999 0.0 0
M  V30 19 O 0.866 3.9999 0.0 0
M  V30 20 C 0.0 4.5 0.0 0
M  V30 END ATOM
M  V30 BEGIN BOND
M  V30 1 2 1 2
M  V30 2 1 2 3
M  V30 3 1 2 4
M  V30 4 2 3 5
M  V30 5 1 3 6
M  V30 6 1 4 7
M  V30 7 1 4 8 CFG=3
M  V30 8 1 5 9
M  V30 9 1 5 10
M  V30 10 2 6 11
M  V30 11 2 7 12
M  V30 12 1 7 13
M  V30 13 2 10 14
M  V30 14 1 12 15
M  V30 15 2 13 16
M  V30 16 1 14 17
M  V30 17 2 15 18
M  V30 18 1 18 19
M  V30 19 1 19 20
M  V30 20 1 11 14
M  V30 21 1 16 18
M  V30 END BOND
M  V30 BEGIN COLLECTION
M  V30 MDLV30/STERAC1 ATOMS=(1 4)
M  V30 END COLLECTION
M  V30 END CTAB
M  END
>  <Molecule ChEMBL ID>
CHEMBL1373918

>  <Smiles>
COc1ccc(C(C)C(=O)c2ccc(O)cc2O)cc1

>  <IC50_nM>
26000

>  <Assay Description>
Binding affinity to PPAR-gamma (unknown origin)

$$$$
CHEMBL50
Actelion Java MolfileCreator 2.0

  0  0  0  0  0  0              0 V3000
M  V30 BEGIN CTAB
M  V30 COUNTS 22 24 0 0 0
M  V30 BEGIN ATOM
M  V30 1 O 0.866 0.0 0.0 0
M  V30 2 C 0.0 -0.5 0.0 0
M  V30 3 C -0.866 0.0 0.0 0
M  V30 4 C 0.0 -1.4999 0.0 0
M  V30 5 O -0.866 1.0 0.0 0
M  V30 6 C -1.732 -0.4999 0.0 0
M  V30 7 C -0.866 -1.9999 0.0 0
M  V30 8 C 0.866 -1.9999 0.0 0
M  V30 9 O -1.732 -1.4999 0.0 0
M  V30 10 C -2.598 0.0 0.0 0
M  V30 11 C -0.866 -2.9999 0.0 0
M  V30 12 O 1.732 -1.5 0.0 0
M  V30 13 C 0.866 -3.0 0.0 0
M  V30 14 C -2.598 1.0 0.0 0
M  V30 15 C -3.4641 -0.4999 0.0 0
M  V30 16 C 0.0 -3.4999 0.0 0
M  V30 17 C -3.4641 1.5 0.0 0
M  V30 18 C -4.3301 0.0 0.0 0
M  V30 19 O 0.0 -4.4999 0.0 0
M  V30 20 O -3.4641 2.5 0.0 0
M  V30 21 C -4.3301 1.0 0.0 0
M  V30 22 O -5.1961 1.5 0.0 0
M  V30 END ATOM
M  V30 BEGIN BOND
M  V30 1 2 1 2
M  V30 2 1 2 3
M  V30 3 1 2 4
M  V30 4 1 3 5
M  V30 5 2 3 6
M  V30 6 2 4 7
M  V30 7 1 4 8
M  V30 8 1 6 9
M  V30 9 1 6 10
M  V30 10 1 7 11
M  V30 11 1 8 12
M  V30 12 2 8 13
M  V30 13 2 10 14
M  V30 14 1 10 15
M  V30 15 2 11 16
M  V30 16 1 14 17
M  V30 17 2 15 18
M  V30 18 1 16 19
M  V30 19 1 17 20
M  V30 20 2 17 21
M  V30 21 1 21 22
M  V30 22 1 7 9
M  V30 23 1 13 16
M  V30 24 1 18 21
M  V30 END BOND
M  V30 END CTAB
M  END
>  <Molecule ChEMBL ID>
CHEMBL50

>  <Smiles>
O=c1c(O)c(-c2ccc(O)c(O)c2)oc2cc(O)cc(O)c12

>  <IC50_nM>
26000

>  <Assay Description>
Agonist activity at PPARgamma (unknown origin)

$$$$
CHEMBL464453
Actelion Java MolfileCreator 2.0

  0  0  0  0  0  0              0 V3000
M  V30 BEGIN CTAB
M  V30 COUNTS 25 27 0 0 0
M  V30 BEGIN ATOM
M  V30 1 O 6.1788 1.8452 0.0 0
M  V30 2 C 5.3128 1.3452 0.0 0
M  V30 3 O 4.3992 1.7519 0.0 0
M  V30 4 C 5.2082 0.3506 0.0 0
M  V30 5 C 3.6772 0.9181 0.0 0 CFG=1
M  V30 6 C 5.9514 -0.3184 0.0 0
M  V30 7 C 4.2301 0.1427 0.0 0 CFG=1
M  V30 8 C 2.8192 0.6168 0.0 0
M  V30 9 C 3.4641 -0.5 0.0 0 CFG=2
M  V30 10 C 1.8507 1.0088 0.0 0 CFG=1
M  V30 11 O 2.598 0.0 0.0 0
M  V30 12 C 3.2904 -1.4848 0.0 0
M  V30 13 C 1.3451 -0.0113 0.0 0 CFG=1
M  V30 14 C 1.4791 1.9371 0.0 0
M  V30 15 C 2.6122 1.0652 0.0 0
M  V30 16 C 2.1541 -1.4126 0.0 0 CFG=1
M  V30 17 O 2.2586 -0.418 0.0 0
M  V30 18 O 0.5178 0.5504 0.0 0
M  V30 19 C 0.676 -0.7544 0.0 0
M  V30 20 O 1.9305 1.5794 0.0 0
M  V30 21 C 3.4641 1.5 0.0 0
M  V30 22 C 1.176 -1.6205 0.0 0
M  V30 23 C 2.227 -2.4099 0.0 0
M  V30 24 C 4.348 0.9838 0.0 0
M  V30 25 C 3.4641 2.5 0.0 0
M  V30 END ATOM
M  V30 BEGIN BOND
M  V30 1 2 1 2
M  V30 2 1 2 3
M  V30 3 1 2 4
M  V30 4 1 5 3 CFG=1
M  V30 5 2 4 6
M  V30 6 1 7 4 CFG=3
M  V30 7 1 5 8
M  V30 8 1 7 9
M  V30 9 1 8 10
M  V30 10 1 9 11 CFG=1
M  V30 11 1 9 12
M  V30 12 1 10 13
M  V30 13 1 10 14 CFG=1
M  V30 14 1 11 15
M  V30 15 1 12 16
M  V30 16 1 13 17
M  V30 17 1 13 18 CFG=1
M  V30 18 1 13 19
M  V30 19 2 15 20
M  V30 20 1 15 21
M  V30 21 1 16 22
M  V30 22 1 16 23 CFG=1
M  V30 23 1 21 24
M  V30 24 1 21 25
M  V30 25 1 5 7
M  V30 26 1 16 17
M  V30 27 1 19 22
M  V30 END BOND
M  V30 BEGIN COLLECTION
M  V30 MDLV30/STEABS ATOMS=(6 5 7 9 10 13 16)
M  V30 END COLLECTION
M  V30 END CTAB
M  END
>  <Molecule ChEMBL ID>
CHEMBL464453

>  <Smiles>
C=C1C(=O)O[C@@H]2C[C@H](C)[C@@]3(O)CC[C@@](C)(C[C@@H](OC(=O)C(C)C)[C@@H]12)O3

>  <IC50_nM>
27000

>  <Assay Description>
Inhibition of fluormone binding to human PPARgamma LBD after 2 hrs by competitive fluorescence polarization assay

$$$$
CHEMBL402063
Actelion Java MolfileCreator 2.0

  0  0  0  0  0  0              0 V3000
M  V30 BEGIN CTAB
M  V30 COUNTS 23 26 0 0 0
M  V30 BEGIN ATOM
M  V30 1 O 12.7717 1.7313 0.0 0
M  V30 2 C 11.3045 1.4194 0.0 0
M  V30 3 C 10.8409 -0.0071 0.0 0
M  V30 4 C 10.3008 2.5341 0.0 0
M  V30 5 C 9.3737 -0.319 0.0 0
M  V30 6 C 8.8335 2.2222 0.0 0
M  V30 7 C 8.37 0.7957 0.0 0 CFG=2
M  V30 8 C 8.9102 -1.7455 0.0 0
M  V30 9 C 6.9028 0.4838 0.0 0 CFG=2
M  V30 10 C 7.3663 1.9104 0.0 0
M  V30 11 C 7.443 -2.0574 0.0 0
M  V30 12 C 6.4393 -0.9427 0.0 0 CFG=1
M  V30 13 C 5.8991 1.5985 0.0 0
M  V30 14 C 4.972 -1.2546 0.0 0 CFG=1
M  V30 15 C 4.4319 1.2866 0.0 0
M  V30 16 C 3.9683 -0.1398 0.0 0 CFG=2
M  V30 17 C 4.222 -2.5536 0.0 0
M  V30 18 C 2.598 -0.75 0.0 0
M  V30 19 C 2.8536 0.8638 0.0 0
M  V30 20 C 2.7548 -2.2417 0.0 0
M  V30 21 C 1.299 0.0 0.0 0
M  V30 22 O 1.6401 -3.2454 0.0 0
M  V30 23 C 1.299 1.4999 0.0 0
M  V30 END ATOM
M  V30 BEGIN BOND
M  V30 1 2 1 2
M  V30 2 1 2 3
M  V30 3 1 2 4
M  V30 4 2 3 5
M  V30 5 1 4 6
M  V30 6 1 5 7
M  V30 7 1 5 8
M  V30 8 1 7 9
M  V30 9 1 7 10 CFG=3
M  V30 10 1 8 11
M  V30 11 1 9 12
M  V30 12 1 9 13 CFG=3
M  V30 13 1 12 14
M  V30 14 1 13 15
M  V30 15 1 14 16
M  V30 16 1 14 17 CFG=3
M  V30 17 1 16 18
M  V30 18 1 16 19 CFG=3
M  V30 19 1 17 20
M  V30 20 2 18 21
M  V30 21 2 20 22
M  V30 22 1 21 23
M  V30 23 1 6 7
M  V30 24 1 12 11 CFG=1
M  V30 25 1 15 16
M  V30 26 1 18 20
M  V30 END BOND
M  V30 BEGIN COLLECTION
M  V30 MDLV30/STEABS ATOMS=(5 7 9 12 14 16)
M  V30 END COLLECTION
M  V30 END CTAB
M  END
>  <Molecule ChEMBL ID>
CHEMBL402063

>  <Smiles>
C/C=C1/C(=O)C[C@H]2[C@@H]3CCC4=CC(=O)CC[C@]4(C)[C@H]3CC[C@]12C

>  <IC50_nM>
27000

>  <Assay Description>
Antagonist activity at PPARgamma (unknown origin) by Alpha Screen assay

$$$$
CHEMBL255251
Actelion Java MolfileCreator 2.0

  0  0  0  0  0  0              0 V3000
M  V30 BEGIN CTAB
M  V30 COUNTS 37 40 0 0 0
M  V30 BEGIN ATOM
M  V30 1 O 6.4951 0.0 0.0 0
M  V30 2 C 5.1961 -0.75 0.0 0
M  V30 3 O 3.8971 0.0 0.0 0
M  V30 4 N 5.1961 -2.25 0.0 0
M  V30 5 C 2.598 -0.75 0.0 0
M  V30 6 C 3.8971 -3.0 0.0 0
M  V30 7 C 6.4951 -3.0 0.0 0
M  V30 8 C 1.299 0.0 0.0 0
M  V30 9 C 3.8971 -4.5 0.0 0
M  V30 10 C 6.4951 -4.5 0.0 0
M  V30 11 C 1.299 1.5 0.0 0
M  V30 12 C 0.0 -0.75 0.0 0
M  V30 13 C 2.598 -5.25 0.0 0
M  V30 14 C 5.1961 -5.25 0.0 0
M  V30 15 C 1.299 -4.5 0.0 0
M  V30 16 C 2.598 -6.75 0.0 0
M  V30 17 C 5.1961 -6.75 0.0 0
M  V30 18 C 0.0 -5.25 0.0 0
M  V30 19 C 1.299 -7.5 0.0 0
M  V30 20 O 3.8971 -7.5 0.0 0
M  V30 21 O 6.4951 -7.5 0.0 0
M  V30 22 C 0.0 -6.75 0.0 0
M  V30 23 O -1.299 -7.5 0.0 0
M  V30 24 C -1.299 -9.0 0.0 0
M  V30 25 C -2.598 -9.75 0.0 0
M  V30 26 C -2.598 -11.25 0.0 0
M  V30 27 N -3.8116 -12.1316 0.0 0
M  V30 28 C -1.3845 -12.1316 0.0 0
M  V30 29 C -3.348 -13.5582 0.0 0
M  V30 30 O -1.848 -13.5582 0.0 0
M  V30 31 C 0.042 -11.6681 0.0 0
M  V30 32 C -4.2297 -14.7717 0.0 0
M  V30 33 C -5.7215 -14.6149 0.0 0
M  V30 34 C -3.6196 -16.1421 0.0 0
M  V30 35 C -6.6032 -15.8285 0.0 0
M  V30 36 C -4.5013 -17.3556 0.0 0
M  V30 37 C -5.9931 -17.1988 0.0 0
M  V30 END ATOM
M  V30 BEGIN BOND
M  V30 1 2 1 2
M  V30 2 1 2 3
M  V30 3 1 2 4
M  V30 4 1 3 5
M  V30 5 1 4 6
M  V30 6 1 4 7
M  V30 7 1 5 8
M  V30 8 1 6 9
M  V30 9 1 7 10
M  V30 10 1 8 11
M  V30 11 1 8 12
M  V30 12 1 9 13
M  V30 13 2 9 14
M  V30 14 2 13 15
M  V30 15 1 13 16
M  V30 16 1 14 17
M  V30 17 1 15 18
M  V30 18 2 16 19
M  V30 19 2 17 20
M  V30 20 1 17 21
M  V30 21 2 18 22
M  V30 22 1 22 23
M  V30 23 1 23 24
M  V30 24 1 24 25
M  V30 25 1 25 26
M  V30 26 1 26 27
M  V30 27 2 26 28
M  V30 28 2 27 29
M  V30 29 1 28 30
M  V30 30 1 28 31
M  V30 31 1 29 32
M  V30 32 2 32 33
M  V30 33 1 32 34
M  V30 34 1 33 35
M  V30 35 2 34 36
M  V30 36 2 35 37
M  V30 37 1 10 14
M  V30 38 1 19 22
M  V30 39 1 29 30
M  V30 40 1 36 37
M  V30 END BOND
M  V30 END CTAB
M  END
>  <Molecule ChEMBL ID>
CHEMBL255251

>  <Smiles>
Cc1oc(-c2ccccc2)nc1CCOc1ccc(C2=C(C(=O)O)CCN(C(=O)OCC(C)C)C2)cc1

>  <IC50_nM>
27300

>  <Assay Description>
Binding affinity at human PPARalpha by fluorescence polarization

$$$$
CHEMBL256505
Actelion Java MolfileCreator 2.0

  0  0  0  0  0  0              0 V3000
M  V30 BEGIN CTAB
M  V30 COUNTS 37 41 0 0 0
M  V30 BEGIN ATOM
M  V30 1 O 5.1961 2.4999 0.0 0
M  V30 2 C 5.1961 1.4999 0.0 0
M  V30 3 O 4.3301 0.9999 0.0 0
M  V30 4 C 6.0621 1.0 0.0 0
M  V30 5 C 6.0621 0.0 0.0 0
M  V30 6 C 6.9282 1.5 0.0 0
M  V30 7 C 5.1961 -0.5 0.0 0
M  V30 8 C 6.9282 -0.4999 0.0 0
M  V30 9 C 7.7942 1.0 0.0 0
M  V30 10 C 4.3301 0.0 0.0 0
M  V30 11 C 5.1961 -1.4999 0.0 0
M  V30 12 N 7.7942 0.0 0.0 0
M  V30 13 C 3.4641 -0.5 0.0 0
M  V30 14 C 4.3301 -1.9999 0.0 0
M  V30 15 C 8.6602 -0.4999 0.0 0
M  V30 16 O 2.598 0.0 0.0 0
M  V30 17 C 3.4641 -1.4999 0.0 0
M  V30 18 C 9.5262 0.0 0.0 0
M  V30 19 C 1.732 -0.5 0.0 0
M  V30 20 C 10.3923 -0.4999 0.0 0
M  V30 21 C 9.5262 1.0 0.0 0
M  V30 22 C 0.866 0.0 0.0 0
M  V30 23 C 11.2583 0.0 0.0 0
M  V30 24 C 10.3923 1.5 0.0 0
M  V30 25 C 0.0 -0.5 0.0 0
M  V30 26 C 11.2583 1.0 0.0 0
M  V30 27 N -0.9135 -0.0932 0.0 0
M  V30 28 C -0.1045 -1.4945 0.0 0
M  V30 29 C -1.5826 -0.8364 0.0 0
M  V30 30 O -1.0826 -1.7024 0.0 0
M  V30 31 C 0.6386 -2.1636 0.0 0
M  V30 32 C -2.5771 -0.7318 0.0 0
M  V30 33 C -2.9839 0.1816 0.0 0
M  V30 34 C -3.1649 -1.5408 0.0 0
M  V30 35 C -3.9784 0.2861 0.0 0
M  V30 36 C -4.1595 -1.4363 0.0 0
M  V30 37 C -4.5662 -0.5228 0.0 0
M  V30 END ATOM
M  V30 BEGIN BOND
M  V30 1 2 1 2
M  V30 2 1 2 3
M  V30 3 1 2 4
M  V30 4 2 4 5
M  V30 5 1 4 6
M  V30 6 1 5 7
M  V30 7 1 5 8
M  V30 8 1 6 9
M  V30 9 2 7 10
M  V30 10 1 7 11
M  V30 11 1 8 12
M  V30 12 1 10 13
M  V30 13 2 11 14
M  V30 14 1 12 15
M  V30 15 1 13 16
M  V30 16 2 13 17
M  V30 17 1 15 18
M  V30 18 1 16 19
M  V30 19 2 18 20
M  V30 20 1 18 21
M  V30 21 1 19 22
M  V30 22 1 20 23
M  V30 23 2 21 24
M  V30 24 1 22 25
M  V30 25 2 23 26
M  V30 26 1 25 27
M  V30 27 2 25 28
M  V30 28 2 27 29
M  V30 29 1 28 30
M  V30 30 1 28 31
M  V30 31 1 29 32
M  V30 32 2 32 33
M  V30 33 1 32 34
M  V30 34 1 33 35
M  V30 35 2 34 36
M  V30 36 2 35 37
M  V30 37 1 9 12
M  V30 38 1 14 17
M  V30 39 1 24 26
M  V30 40 1 29 30
M  V30 41 1 36 37
M  V30 END BOND
M  V30 END CTAB
M  END
>  <Molecule ChEMBL ID>
CHEMBL256505

>  <Smiles>
Cc1oc(-c2ccccc2)nc1CCOc1cccc(C2=C(C(=O)O)CCN(Cc3ccccc3)C2)c1

>  <IC50_nM>
27500

>  <Assay Description>
Binding affinity at human PPARalpha by fluorescence polarization

$$$$
CHEMBL515972
Actelion Java MolfileCreator 2.0

  0  0  0  0  0  0              0 V3000
M  V30 BEGIN CTAB
M  V30 COUNTS 27 29 0 0 0
M  V30 BEGIN ATOM
M  V30 1 O 9.5262 0.9999 0.0 0
M  V30 2 C 8.6602 1.4999 0.0 0
M  V30 3 O 8.6602 2.4999 0.0 0
M  V30 4 C 7.7942 0.9999 0.0 0 CFG=1
M  V30 5 N 7.7942 0.0 0.0 0
M  V30 6 C 6.9282 1.4999 0.0 0
M  V30 7 C 6.9852 -0.5877 0.0 0
M  V30 8 C 8.6032 -0.5877 0.0 0
M  V30 9 C 6.0621 0.9999 0.0 0
M  V30 10 C 7.2942 -1.5388 0.0 0
M  V30 11 C 8.2942 -1.5388 0.0 0
M  V30 12 C 5.1961 1.4999 0.0 0
M  V30 13 C 6.0621 0.0 0.0 0
M  V30 14 C 4.3301 0.9999 0.0 0
M  V30 15 C 5.1961 -0.5 0.0 0
M  V30 16 C 4.3301 0.0 0.0 0
M  V30 17 C 3.4641 -0.5 0.0 0
M  V30 18 C 2.598 0.0 0.0 0
M  V30 19 C 1.732 -0.5 0.0 0
M  V30 20 N 0.866 0.0 0.0 0
M  V30 21 C 0.866 1.0 0.0 0
M  V30 22 C 0.0 -0.5 0.0 0
M  V30 23 N 1.732 1.4999 0.0 0
M  V30 24 C 0.0 1.4999 0.0 0
M  V30 25 C 1.732 2.5 0.0 0
M  V30 26 C 0.0 2.5 0.0 0
M  V30 27 C 0.866 3.0 0.0 0
M  V30 END ATOM
M  V30 BEGIN BOND
M  V30 1 2 1 2
M  V30 2 1 2 3
M  V30 3 1 2 4
M  V30 4 1 4 5 CFG=1
M  V30 5 1 4 6
M  V30 6 1 5 7
M  V30 7 1 5 8
M  V30 8 1 6 9
M  V30 9 2 7 10
M  V30 10 2 8 11
M  V30 11 2 9 12
M  V30 12 1 9 13
M  V30 13 1 12 14
M  V30 14 2 13 15
M  V30 15 2 14 16
M  V30 16 1 16 17
M  V30 17 1 17 18
M  V30 18 1 18 19
M  V30 19 1 19 20
M  V30 20 1 20 21
M  V30 21 1 20 22
M  V30 22 2 21 23
M  V30 23 1 21 24
M  V30 24 1 23 25
M  V30 25 2 24 26
M  V30 26 2 25 27
M  V30 27 1 10 11
M  V30 28 1 15 16
M  V30 29 1 26 27
M  V30 END BOND
M  V30 BEGIN COLLECTION
M  V30 MDLV30/STEABS ATOMS=(1 4)
M  V30 END COLLECTION
M  V30 END CTAB
M  END
>  <Molecule ChEMBL ID>
CHEMBL515972

>  <Smiles>
CN(CCCc1ccc(C[C@@H](C(=O)O)n2cccc2)cc1)c1ccccn1

>  <IC50_nM>
28000

>  <Assay Description>
Displacement of [3H]darglitazone from human PPARgamma by scintillation proximity assay

$$$$
CHEMBL5178739
Actelion Java MolfileCreator 2.0

  0  0  0  0  0  0              0 V3000
M  V30 BEGIN CTAB
M  V30 COUNTS 32 35 0 0 0
M  V30 BEGIN ATOM
M  V30 1 Cl 2.0253 -1.7449 0.0 0
M  V30 2 C 2.9763 -2.054 0.0 0
M  V30 3 C 3.7195 -1.3848 0.0 0
M  V30 4 C 3.1843 -3.0321 0.0 0
M  V30 5 C 4.6705 -1.6939 0.0 0
M  V30 6 C 3.5116 -0.4067 0.0 0
M  V30 7 C 4.1353 -3.3411 0.0 0
M  V30 8 C 4.8785 -2.672 0.0 0
M  V30 9 C 5.4137 -1.0247 0.0 0
M  V30 10 N 4.1807 0.3364 0.0 0
M  V30 11 C 2.598 0.0 0.0 0
M  V30 12 F 6.0828 -1.7679 0.0 0
M  V30 13 F 6.1568 -0.3556 0.0 0
M  V30 14 F 4.7446 -0.2816 0.0 0
M  V30 15 O 3.6807 1.2024 0.0 0
M  V30 16 C 2.7026 0.9945 0.0 0
M  V30 17 C 1.732 -0.5 0.0 0
M  V30 18 C 1.9594 1.6636 0.0 0
M  V30 19 O 0.866 0.0 0.0 0
M  V30 20 N 2.0639 2.6581 0.0 0
M  V30 21 C 0.9813 1.4557 0.0 0
M  V30 22 C 0.0 -0.5 0.0 0
M  V30 23 C 1.1504 3.0649 0.0 0
M  V30 24 C 0.4813 2.3217 0.0 0
M  V30 25 C -0.866 0.0 0.0 0
M  V30 26 C 0.0 -1.4999 0.0 0
M  V30 27 C -1.732 -0.4999 0.0 0
M  V30 28 C -0.866 -1.9999 0.0 0
M  V30 29 C -1.732 -1.4999 0.0 0
M  V30 30 C -2.598 -1.9999 0.0 0
M  V30 31 O -3.4641 -1.4999 0.0 0
M  V30 32 O -2.598 -2.9999 0.0 0
M  V30 END ATOM
M  V30 BEGIN BOND
M  V30 1 1 1 2
M  V30 2 2 2 3
M  V30 3 1 2 4
M  V30 4 1 3 5
M  V30 5 1 3 6
M  V30 6 2 4 7
M  V30 7 2 5 8
M  V30 8 1 5 9
M  V30 9 2 6 10
M  V30 10 1 6 11
M  V30 11 1 9 12
M  V30 12 1 9 13
M  V30 13 1 9 14
M  V30 14 1 10 15
M  V30 15 2 11 16
M  V30 16 1 11 17
M  V30 17 1 16 18
M  V30 18 1 17 19
M  V30 19 1 18 20
M  V30 20 2 18 21
M  V30 21 1 19 22
M  V30 22 1 20 23
M  V30 23 1 21 24
M  V30 24 2 22 25
M  V30 25 1 22 26
M  V30 26 1 25 27
M  V30 27 2 26 28
M  V30 28 2 27 29
M  V30 29 1 29 30
M  V30 30 2 30 31
M  V30 31 1 30 32
M  V30 32 1 7 8
M  V30 33 1 15 16
M  V30 34 2 23 24
M  V30 35 1 28 29
M  V30 END BOND
M  V30 END CTAB
M  END
>  <Molecule ChEMBL ID>
CHEMBL5178739

>  <Smiles>
O=C(O)c1ccc(OCc2c(-c3c(Cl)cccc3C(F)(F)F)noc2-c2ccc[nH]2)cc1

>  <IC50_nM>
29000

>  <Assay Description>
Inverse agonist activity at His6-tagged PPARgamma LBD (unknown origin) assessed as N-terminal biotinylated PGC1a coactivator peptide recruitment in presence of rosiglitazone by TR-FRET assay

$$$$
CHEMBL4449687
Actelion Java MolfileCreator 2.0

  0  0  0  0  0  0              0 V3000
M  V30 BEGIN CTAB
M  V30 COUNTS 45 49 0 0 0
M  V30 BEGIN ATOM
M  V30 1 F 3.9844 -3.4508 0.0 0
M  V30 2 C 3.0333 -3.1418 0.0 0
M  V30 3 C 2.8254 -2.1636 0.0 0
M  V30 4 C 2.2902 -3.8109 0.0 0
M  V30 5 N 3.5686 -1.4945 0.0 0
M  V30 6 C 1.8744 -1.8546 0.0 0
M  V30 7 C 1.3391 -3.5019 0.0 0
M  V30 8 C 4.5467 -1.7024 0.0 0
M  V30 9 C 3.4641 -0.5 0.0 0
M  V30 10 C 1.1312 -2.5237 0.0 0
M  V30 11 O 4.9535 -2.6159 0.0 0
M  V30 12 N 5.0467 -0.8364 0.0 0
M  V30 13 N 4.3776 -0.0932 0.0 0
M  V30 14 C 2.598 0.0 0.0 0
M  V30 15 C 6.0412 -0.7318 0.0 0
M  V30 16 C 1.732 -0.5 0.0 0
M  V30 17 C 6.629 -1.5408 0.0 0
M  V30 18 C 6.448 0.1816 0.0 0
M  V30 19 C 0.866 0.0 0.0 0
M  V30 20 C 7.6236 -1.4363 0.0 0
M  V30 21 C 7.4425 0.2861 0.0 0
M  V30 22 C 0.0 -0.5 0.0 0
M  V30 23 C 8.0303 -0.5228 0.0 0
M  V30 24 C -0.866 0.0 0.0 0
M  V30 25 C 0.0 -1.4999 0.0 0
M  V30 26 C 9.0248 -0.4182 0.0 0
M  V30 27 C -1.732 -0.4999 0.0 0
M  V30 28 C -0.866 -1.9999 0.0 0
M  V30 29 F 8.9203 0.5762 0.0 0
M  V30 30 F 10.0193 -0.3137 0.0 0
M  V30 31 F 9.1293 -1.4128 0.0 0
M  V30 32 C -1.732 -1.4999 0.0 0
M  V30 33 C -2.598 -1.9999 0.0 0
M  V30 34 C -3.4641 -1.4999 0.0 0
M  V30 35 C -2.598 -2.9999 0.0 0
M  V30 36 C -4.3301 -1.9999 0.0 0
M  V30 37 C -3.4641 -3.4999 0.0 0
M  V30 38 C -4.3301 -2.9999 0.0 0
M  V30 39 C -5.1961 -1.4999 0.0 0
M  V30 40 O -5.1961 -3.4999 0.0 0
M  V30 41 C -5.1961 -0.4999 0.0 0
M  V30 42 C -6.0621 -2.9999 0.0 0
M  V30 43 O -4.3301 0.0 0.0 0
M  V30 44 O -6.0621 0.0 0.0 0
M  V30 45 C -6.9282 -3.4999 0.0 0
M  V30 END ATOM
M  V30 BEGIN BOND
M  V30 1 1 1 2
M  V30 2 2 2 3
M  V30 3 1 2 4
M  V30 4 1 3 5
M  V30 5 1 3 6
M  V30 6 2 4 7
M  V30 7 1 5 8
M  V30 8 1 5 9
M  V30 9 2 6 10
M  V30 10 2 8 11
M  V30 11 1 8 12
M  V30 12 2 9 13
M  V30 13 1 9 14
M  V30 14 1 12 15
M  V30 15 1 14 16
M  V30 16 2 15 17
M  V30 17 1 15 18
M  V30 18 1 16 19
M  V30 19 1 17 20
M  V30 20 2 18 21
M  V30 21 1 19 22
M  V30 22 2 20 23
M  V30 23 2 22 24
M  V30 24 1 22 25
M  V30 25 1 23 26
M  V30 26 1 24 27
M  V30 27 2 25 28
M  V30 28 1 26 29
M  V30 29 1 26 30
M  V30 30 1 26 31
M  V30 31 2 27 32
M  V30 32 1 32 33
M  V30 33 2 33 34
M  V30 34 1 33 35
M  V30 35 1 34 36
M  V30 36 2 35 37
M  V30 37 2 36 38
M  V30 38 1 36 39
M  V30 39 1 38 40
M  V30 40 1 39 41
M  V30 41 1 40 42
M  V30 42 2 41 43
M  V30 43 1 41 44
M  V30 44 1 42 45
M  V30 45 1 7 10
M  V30 46 1 12 13
M  V30 47 1 21 23
M  V30 48 1 28 32
M  V30 49 1 37 38
M  V30 END BOND
M  V30 END CTAB
M  END
>  <Molecule ChEMBL ID>
CHEMBL4449687

>  <Smiles>
CCOc1ccc(-c2ccc(CCCc3nn(-c4ccc(C(F)(F)F)cc4)c(=O)n3-c3ccccc3F)cc2)cc1CC(=O)O

>  <IC50_nM>
30000

>  <Assay Description>
Agonist activity at PPARgamma (unknown origin)

$$$$
CHEMBL108766
Actelion Java MolfileCreator 2.0

  0  0  0  0  0  0              0 V3000
M  V30 BEGIN CTAB
M  V30 COUNTS 14 13 0 0 0
M  V30 BEGIN ATOM
M  V30 1 O 10.3923 -0.5 0.0 0
M  V30 2 C 9.5262 0.0 0.0 0
M  V30 3 O 9.5262 1.0 0.0 0
M  V30 4 C 8.6602 -0.5 0.0 0
M  V30 5 C 7.7942 0.0 0.0 0
M  V30 6 C 6.9282 -0.5 0.0 0
M  V30 7 C 6.0621 0.0 0.0 0
M  V30 8 C 5.1961 -0.5 0.0 0
M  V30 9 C 4.3301 0.0 0.0 0
M  V30 10 C 3.4641 -0.5 0.0 0
M  V30 11 C 2.598 0.0 0.0 0
M  V30 12 C 1.732 -0.5 0.0 0
M  V30 13 C 0.866 0.0 0.0 0
M  V30 14 C 0.0 -0.5 0.0 0
M  V30 END ATOM
M  V30 BEGIN BOND
M  V30 1 2 1 2
M  V30 2 1 2 3
M  V30 3 1 2 4
M  V30 4 1 4 5
M  V30 5 1 5 6
M  V30 6 1 6 7
M  V30 7 1 7 8
M  V30 8 1 8 9
M  V30 9 1 9 10
M  V30 10 1 10 11
M  V30 11 1 11 12
M  V30 12 1 12 13
M  V30 13 1 13 14
M  V30 END BOND
M  V30 END CTAB
M  END
>  <Molecule ChEMBL ID>
CHEMBL108766

>  <Smiles>
CCCCCCCCCCCC(=O)O

>  <IC50_nM>
30000

>  <Assay Description>
Displacement of [3H]BRL49653 from Homo sapiens (human) PPARgamma receptor by scintillation proximity assay

$$$$
CHEMBL46403
Actelion Java MolfileCreator 2.0

  0  0  0  0  0  0              0 V3000
M  V30 BEGIN CTAB
M  V30 COUNTS 20 19 0 0 0
M  V30 BEGIN ATOM
M  V30 1 O 15.5884 -0.5 0.0 0
M  V30 2 C 14.7224 0.0 0.0 0
M  V30 3 O 14.7224 1.0 0.0 0
M  V30 4 C 13.8564 -0.5 0.0 0
M  V30 5 C 12.9903 0.0 0.0 0
M  V30 6 C 12.1243 -0.5 0.0 0
M  V30 7 C 11.2583 0.0 0.0 0
M  V30 8 C 10.3923 -0.5 0.0 0
M  V30 9 C 9.5262 0.0 0.0 0
M  V30 10 C 8.6602 -0.5 0.0 0
M  V30 11 C 7.7942 0.0 0.0 0
M  V30 12 C 6.9282 -0.5 0.0 0
M  V30 13 C 6.0621 0.0 0.0 0
M  V30 14 C 5.1961 -0.5 0.0 0
M  V30 15 C 4.3301 0.0 0.0 0
M  V30 16 C 3.4641 -0.5 0.0 0
M  V30 17 C 2.598 0.0 0.0 0
M  V30 18 C 1.732 -0.5 0.0 0
M  V30 19 C 0.866 0.0 0.0 0
M  V30 20 C 0.0 -0.5 0.0 0
M  V30 END ATOM
M  V30 BEGIN BOND
M  V30 1 2 1 2
M  V30 2 1 2 3
M  V30 3 1 2 4
M  V30 4 1 4 5
M  V30 5 1 5 6
M  V30 6 1 6 7
M  V30 7 1 7 8
M  V30 8 1 8 9
M  V30 9 1 9 10
M  V30 10 1 10 11
M  V30 11 1 11 12
M  V30 12 1 12 13
M  V30 13 1 13 14
M  V30 14 1 14 15
M  V30 15 1 15 16
M  V30 16 1 16 17
M  V30 17 1 17 18
M  V30 18 1 18 19
M  V30 19 1 19 20
M  V30 END BOND
M  V30 END CTAB
M  END
>  <Molecule ChEMBL ID>
CHEMBL46403

>  <Smiles>
CCCCCCCCCCCCCCCCCC(=O)O

>  <IC50_nM>
30000

>  <Assay Description>
Displacement of [3H]BRL49653 from Homo sapiens (human) PPARgamma receptor by scintillation proximity assay

$$$$
CHEMBL1173381
Actelion Java MolfileCreator 2.0

  0  0  0  0  0  0              0 V3000
M  V30 BEGIN CTAB
M  V30 COUNTS 22 21 0 0 0
M  V30 BEGIN ATOM
M  V30 1 O 17.3205 -0.5 0.0 0
M  V30 2 C 16.4544 0.0 0.0 0
M  V30 3 O 16.4544 1.0 0.0 0
M  V30 4 C 15.5884 -0.5 0.0 0
M  V30 5 C 14.7224 0.0 0.0 0
M  V30 6 C 13.8564 -0.5 0.0 0
M  V30 7 C 12.9903 0.0 0.0 0
M  V30 8 C 12.1243 -0.5 0.0 0
M  V30 9 C 11.2583 0.0 0.0 0
M  V30 10 C 10.3923 -0.5 0.0 0
M  V30 11 C 9.5262 0.0 0.0 0
M  V30 12 C 8.6602 -0.5 0.0 0
M  V30 13 C 7.7942 0.0 0.0 0
M  V30 14 C 6.9282 -0.5 0.0 0
M  V30 15 C 6.0621 0.0 0.0 0
M  V30 16 C 5.1961 -0.5 0.0 0
M  V30 17 C 4.3301 0.0 0.0 0
M  V30 18 C 3.4641 -0.5 0.0 0
M  V30 19 C 2.598 0.0 0.0 0
M  V30 20 C 1.732 -0.5 0.0 0
M  V30 21 C 0.866 0.0 0.0 0
M  V30 22 C 0.0 -0.5 0.0 0
M  V30 END ATOM
M  V30 BEGIN BOND
M  V30 1 2 1 2
M  V30 2 1 2 3
M  V30 3 1 2 4
M  V30 4 1 4 5
M  V30 5 1 5 6
M  V30 6 1 6 7
M  V30 7 1 7 8
M  V30 8 1 8 9
M  V30 9 1 9 10
M  V30 10 1 10 11
M  V30 11 1 11 12
M  V30 12 1 12 13
M  V30 13 1 13 14
M  V30 14 1 14 15
M  V30 15 1 15 16
M  V30 16 1 16 17
M  V30 17 1 17 18
M  V30 18 1 18 19
M  V30 19 1 19 20
M  V30 20 1 20 21
M  V30 21 1 21 22
M  V30 END BOND
M  V30 END CTAB
M  END
>  <Molecule ChEMBL ID>
CHEMBL1173381

>  <Smiles>
CCCCCCCCCCCCCCCCCCCC(=O)O

>  <IC50_nM>
30000

>  <Assay Description>
Displacement of [3H]BRL49653 from Homo sapiens (human) PPARgamma receptor by scintillation proximity assay

$$$$
CHEMBL1173380
Actelion Java MolfileCreator 2.0

  0  0  0  0  0  0              0 V3000
M  V30 BEGIN CTAB
M  V30 COUNTS 24 23 0 0 0
M  V30 BEGIN ATOM
M  V30 1 O 28.5788 -0.75 0.0 0
M  V30 2 C 27.2798 0.0 0.0 0
M  V30 3 O 27.2798 1.4999 0.0 0
M  V30 4 C 25.9807 -0.75 0.0 0
M  V30 5 C 24.6817 0.0 0.0 0
M  V30 6 C 23.3826 -0.75 0.0 0
M  V30 7 C 22.0836 0.0 0.0 0
M  V30 8 C 20.7846 -0.75 0.0 0
M  V30 9 C 19.4855 0.0 0.0 0
M  V30 10 C 18.1865 -0.75 0.0 0
M  V30 11 C 16.8874 0.0 0.0 0
M  V30 12 C 15.5884 -0.75 0.0 0
M  V30 13 C 14.2894 0.0 0.0 0
M  V30 14 C 12.9903 -0.75 0.0 0
M  V30 15 C 11.6913 0.0 0.0 0
M  V30 16 C 10.3923 -0.75 0.0 0
M  V30 17 C 10.3923 -2.2499 0.0 0
M  V30 18 C 9.0932 -3.0 0.0 0
M  V30 19 C 9.0932 -4.5 0.0 0
M  V30 20 C 7.7942 -5.25 0.0 0
M  V30 21 C 7.7942 -6.75 0.0 0
M  V30 22 C 6.4951 -7.5 0.0 0
M  V30 23 C 6.4951 -9.0 0.0 0
M  V30 24 C 5.1961 -9.75 0.0 0
M  V30 END ATOM
M  V30 BEGIN BOND
M  V30 1 2 1 2
M  V30 2 1 2 3
M  V30 3 1 2 4
M  V30 4 1 4 5
M  V30 5 1 5 6
M  V30 6 1 6 7
M  V30 7 1 7 8
M  V30 8 1 8 9
M  V30 9 1 9 10
M  V30 10 1 10 11
M  V30 11 1 11 12
M  V30 12 1 12 13
M  V30 13 1 13 14
M  V30 14 1 14 15
M  V30 15 2 15 16
M  V30 16 1 16 17
M  V30 17 1 17 18
M  V30 18 1 18 19
M  V30 19 1 19 20
M  V30 20 1 20 21
M  V30 21 1 21 22
M  V30 22 1 22 23
M  V30 23 1 23 24
M  V30 END BOND
M  V30 END CTAB
M  END
>  <Molecule ChEMBL ID>
CHEMBL1173380

>  <Smiles>
CCCCCCCC/C=C\CCCCCCCCCCCC(=O)O

>  <IC50_nM>
30000

>  <Assay Description>
Displacement of [3H]BRL49653 from Homo sapiens (human) PPARgamma receptor by scintillation proximity assay

$$$$
CHEMBL107498
Actelion Java MolfileCreator 2.0

  0  0  0  0  0  0              0 V3000
M  V30 BEGIN CTAB
M  V30 COUNTS 12 11 0 0 0
M  V30 BEGIN ATOM
M  V30 1 O 8.6602 -0.5 0.0 0
M  V30 2 C 7.7942 0.0 0.0 0
M  V30 3 O 7.7942 0.9999 0.0 0
M  V30 4 C 6.9282 -0.5 0.0 0
M  V30 5 C 6.0621 0.0 0.0 0
M  V30 6 C 5.1961 -0.5 0.0 0
M  V30 7 C 4.3301 0.0 0.0 0
M  V30 8 C 3.4641 -0.5 0.0 0
M  V30 9 C 2.598 0.0 0.0 0
M  V30 10 C 1.732 -0.5 0.0 0
M  V30 11 C 0.866 0.0 0.0 0
M  V30 12 C 0.0 -0.5 0.0 0
M  V30 END ATOM
M  V30 BEGIN BOND
M  V30 1 2 1 2
M  V30 2 1 2 3
M  V30 3 1 2 4
M  V30 4 1 4 5
M  V30 5 1 5 6
M  V30 6 1 6 7
M  V30 7 1 7 8
M  V30 8 1 8 9
M  V30 9 1 9 10
M  V30 10 1 10 11
M  V30 11 1 11 12
M  V30 END BOND
M  V30 END CTAB
M  END
>  <Molecule ChEMBL ID>
CHEMBL107498

>  <Smiles>
CCCCCCCCCC(=O)O

>  <IC50_nM>
30000

>  <Assay Description>
Displacement of [3H]BRL49653 from Homo sapiens (human) PPARgamma receptor by scintillation proximity assay

$$$$
CHEMBL82293
Actelion Java MolfileCreator 2.0

  0  0  0  0  0  0              0 V3000
M  V30 BEGIN CTAB
M  V30 COUNTS 18 17 0 0 0
M  V30 BEGIN ATOM
M  V30 1 O 13.8564 -0.5 0.0 0
M  V30 2 C 12.9903 0.0 0.0 0
M  V30 3 O 12.9903 1.0 0.0 0
M  V30 4 C 12.1243 -0.5 0.0 0
M  V30 5 C 11.2583 0.0 0.0 0
M  V30 6 C 10.3923 -0.5 0.0 0
M  V30 7 C 9.5262 0.0 0.0 0
M  V30 8 C 8.6602 -0.5 0.0 0
M  V30 9 C 7.7942 0.0 0.0 0
M  V30 10 C 6.9282 -0.5 0.0 0
M  V30 11 C 6.0621 0.0 0.0 0
M  V30 12 C 5.1961 -0.5 0.0 0
M  V30 13 C 4.3301 0.0 0.0 0
M  V30 14 C 3.4641 -0.5 0.0 0
M  V30 15 C 2.598 0.0 0.0 0
M  V30 16 C 1.732 -0.5 0.0 0
M  V30 17 C 0.866 0.0 0.0 0
M  V30 18 C 0.0 -0.5 0.0 0
M  V30 END ATOM
M  V30 BEGIN BOND
M  V30 1 2 1 2
M  V30 2 1 2 3
M  V30 3 1 2 4
M  V30 4 1 4 5
M  V30 5 1 5 6
M  V30 6 1 6 7
M  V30 7 1 7 8
M  V30 8 1 8 9
M  V30 9 1 9 10
M  V30 10 1 10 11
M  V30 11 1 11 12
M  V30 12 1 12 13
M  V30 13 1 13 14
M  V30 14 1 14 15
M  V30 15 1 15 16
M  V30 16 1 16 17
M  V30 17 1 17 18
M  V30 END BOND
M  V30 END CTAB
M  END
>  <Molecule ChEMBL ID>
CHEMBL82293

>  <Smiles>
CCCCCCCCCCCCCCCC(=O)O

>  <IC50_nM>
30000

>  <Assay Description>
Displacement of [3H]BRL49653 from Homo sapiens (human) PPARgamma receptor by scintillation proximity assay

$$$$
CHEMBL1173474
Actelion Java MolfileCreator 2.0

  0  0  0  0  0  0              0 V3000
M  V30 BEGIN CTAB
M  V30 COUNTS 24 23 0 0 0
M  V30 BEGIN ATOM
M  V30 1 O 28.5788 -0.75 0.0 0
M  V30 2 C 27.2798 0.0 0.0 0
M  V30 3 O 27.2798 1.4999 0.0 0
M  V30 4 C 25.9807 -0.75 0.0 0
M  V30 5 C 24.6817 0.0 0.0 0
M  V30 6 C 23.3826 -0.75 0.0 0
M  V30 7 C 22.0836 0.0 0.0 0
M  V30 8 C 20.7846 -0.75 0.0 0
M  V30 9 C 19.4855 0.0 0.0 0
M  V30 10 C 18.1865 -0.75 0.0 0
M  V30 11 C 16.8874 0.0 0.0 0
M  V30 12 C 15.5884 -0.75 0.0 0
M  V30 13 C 14.2894 0.0 0.0 0
M  V30 14 C 12.9903 -0.75 0.0 0
M  V30 15 C 11.6913 0.0 0.0 0
M  V30 16 C 10.3923 -0.75 0.0 0
M  V30 17 C 9.0932 0.0 0.0 0
M  V30 18 C 7.7942 -0.75 0.0 0
M  V30 19 C 6.4951 0.0 0.0 0
M  V30 20 C 5.1961 -0.75 0.0 0
M  V30 21 C 3.8971 0.0 0.0 0
M  V30 22 C 2.598 -0.75 0.0 0
M  V30 23 C 1.299 0.0 0.0 0
M  V30 24 C 0.0 -0.75 0.0 0
M  V30 END ATOM
M  V30 BEGIN BOND
M  V30 1 2 1 2
M  V30 2 1 2 3
M  V30 3 1 2 4
M  V30 4 1 4 5
M  V30 5 1 5 6
M  V30 6 1 6 7
M  V30 7 1 7 8
M  V30 8 1 8 9
M  V30 9 1 9 10
M  V30 10 1 10 11
M  V30 11 1 11 12
M  V30 12 1 12 13
M  V30 13 1 13 14
M  V30 14 1 14 15
M  V30 15 1 15 16
M  V30 16 1 16 17
M  V30 17 1 17 18
M  V30 18 1 18 19
M  V30 19 1 19 20
M  V30 20 1 20 21
M  V30 21 1 21 22
M  V30 22 1 22 23
M  V30 23 1 23 24
M  V30 END BOND
M  V30 END CTAB
M  END
>  <Molecule ChEMBL ID>
CHEMBL1173474

>  <Smiles>
CCCCCCCCCCCCCCCCCCCCCC(=O)O

>  <IC50_nM>
30000

>  <Assay Description>
Displacement of [3H]BRL49653 from Homo sapiens (human) PPARgamma receptor by scintillation proximity assay

$$$$
CHEMBL2070239
Actelion Java MolfileCreator 2.0

  0  0  0  0  0  0              0 V3000
M  V30 BEGIN CTAB
M  V30 COUNTS 30 32 0 0 0
M  V30 BEGIN ATOM
M  V30 1 S 9.0248 -0.4182 0.0 0
M  V30 2 O 9.1293 -1.4128 0.0 0
M  V30 3 O 8.9203 0.5762 0.0 0
M  V30 4 C 8.0303 -0.5228 0.0 0
M  V30 5 C 10.0193 -0.3137 0.0 0
M  V30 6 C 7.4425 0.2861 0.0 0
M  V30 7 C 7.6236 -1.4363 0.0 0
M  V30 8 N 7.8492 1.1997 0.0 0 CHG=1
M  V30 9 C 6.448 0.1816 0.0 0
M  V30 10 C 6.629 -1.5408 0.0 0
M  V30 11 O 8.8438 1.3042 0.0 0
M  V30 12 O 7.2615 2.0087 0.0 0 CHG=-1
M  V30 13 C 6.0412 -0.7318 0.0 0
M  V30 14 C 5.0467 -0.8364 0.0 0
M  V30 15 S 4.3776 -0.0932 0.0 0
M  V30 16 N 4.5467 -1.7024 0.0 0
M  V30 17 C 3.4641 -0.5 0.0 0
M  V30 18 C 3.5686 -1.4945 0.0 0
M  V30 19 C 2.598 0.0 0.0 0
M  V30 20 O 2.598 1.0 0.0 0
M  V30 21 N 1.732 -0.5 0.0 0
M  V30 22 C 0.866 0.0 0.0 0
M  V30 23 C 1.732 -1.5 0.0 0
M  V30 24 C 0.0 -0.5 0.0 0
M  V30 25 C -0.866 0.0 0.0 0
M  V30 26 C 0.0 -1.4999 0.0 0
M  V30 27 C -1.732 -0.4999 0.0 0
M  V30 28 C -0.866 -1.9999 0.0 0
M  V30 29 F -2.598 0.0 0.0 0
M  V30 30 C -1.732 -1.4999 0.0 0
M  V30 END ATOM
M  V30 BEGIN BOND
M  V30 1 2 1 2
M  V30 2 2 1 3
M  V30 3 1 1 4
M  V30 4 1 1 5
M  V30 5 2 4 6
M  V30 6 1 4 7
M  V30 7 1 6 8
M  V30 8 1 6 9
M  V30 9 2 7 10
M  V30 10 2 8 11
M  V30 11 1 8 12
M  V30 12 2 9 13
M  V30 13 1 13 14
M  V30 14 1 14 15
M  V30 15 2 14 16
M  V30 16 1 15 17
M  V30 17 1 16 18
M  V30 18 1 17 19
M  V30 19 2 19 20
M  V30 20 1 19 21
M  V30 21 1 21 22
M  V30 22 1 21 23
M  V30 23 1 22 24
M  V30 24 2 24 25
M  V30 25 1 24 26
M  V30 26 1 25 27
M  V30 27 2 26 28
M  V30 28 1 27 29
M  V30 29 2 27 30
M  V30 30 1 10 13
M  V30 31 2 17 18
M  V30 32 1 28 30
M  V30 END BOND
M  V30 END CTAB
M  END
>  <Molecule ChEMBL ID>
CHEMBL2070239

>  <Smiles>
CN(Cc1cccc(F)c1)C(=O)c1cnc(-c2ccc(S(C)(=O)=O)c([N+](=O)[O-])c2)s1

>  <IC50_nM>
30200

>  <Assay Description>
Antagonist activity at human PPAR-gamma assessed as inhibition of interaction with DRIP-2 by fluorescence polarisation assay

$$$$
CHEMBL596544
Actelion Java MolfileCreator 2.0

  0  0  0  0  0  0              0 V3000
M  V30 BEGIN CTAB
M  V30 COUNTS 31 34 0 0 0
M  V30 BEGIN ATOM
M  V30 1 O 6.9282 -4.5 0.0 0
M  V30 2 C 6.9282 -3.5 0.0 0
M  V30 3 O 7.7942 -3.0 0.0 0
M  V30 4 C 6.0621 -3.0 0.0 0 CFG=2
M  V30 5 N 5.1961 -3.5 0.0 0
M  V30 6 C 6.0621 -1.9999 0.0 0
M  V30 7 N 4.2826 -3.0932 0.0 0
M  V30 8 C 5.0916 -4.4945 0.0 0
M  V30 9 C 5.1961 -1.4999 0.0 0
M  V30 10 C 3.6134 -3.8364 0.0 0
M  V30 11 C 4.1134 -4.7024 0.0 0
M  V30 12 C 5.1961 -0.5 0.0 0
M  V30 13 C 4.3301 -1.9999 0.0 0
M  V30 14 C 4.3301 0.0 0.0 0
M  V30 15 C 3.4641 -1.5 0.0 0
M  V30 16 C 3.4641 -0.5 0.0 0
M  V30 17 C 2.598 0.0 0.0 0
M  V30 18 C 1.732 -0.5 0.0 0
M  V30 19 C 0.866 0.0 0.0 0
M  V30 20 C 0.0 -0.5 0.0 0
M  V30 21 N -0.9135 -0.0932 0.0 0
M  V30 22 C -0.1045 -1.4945 0.0 0
M  V30 23 C -1.5826 -0.8364 0.0 0
M  V30 24 O -1.0826 -1.7024 0.0 0
M  V30 25 C 0.6386 -2.1636 0.0 0
M  V30 26 C -2.5771 -0.7318 0.0 0
M  V30 27 C -2.9839 0.1816 0.0 0
M  V30 28 C -3.1649 -1.5408 0.0 0
M  V30 29 C -3.9784 0.2861 0.0 0
M  V30 30 C -4.1595 -1.4363 0.0 0
M  V30 31 C -4.5662 -0.5228 0.0 0
M  V30 END ATOM
M  V30 BEGIN BOND
M  V30 1 2 1 2
M  V30 2 1 2 3
M  V30 3 1 2 4
M  V30 4 1 4 5 CFG=3
M  V30 5 1 4 6
M  V30 6 1 5 7
M  V30 7 1 5 8
M  V30 8 1 6 9
M  V30 9 2 7 10
M  V30 10 2 8 11
M  V30 11 2 9 12
M  V30 12 1 9 13
M  V30 13 1 12 14
M  V30 14 2 13 15
M  V30 15 2 14 16
M  V30 16 1 16 17
M  V30 17 1 17 18
M  V30 18 1 18 19
M  V30 19 1 19 20
M  V30 20 1 20 21
M  V30 21 2 20 22
M  V30 22 2 21 23
M  V30 23 1 22 24
M  V30 24 1 22 25
M  V30 25 1 23 26
M  V30 26 2 26 27
M  V30 27 1 26 28
M  V30 28 1 27 29
M  V30 29 2 28 30
M  V30 30 2 29 31
M  V30 31 1 10 11
M  V30 32 1 15 16
M  V30 33 1 23 24
M  V30 34 1 30 31
M  V30 END BOND
M  V30 BEGIN COLLECTION
M  V30 MDLV30/STEABS ATOMS=(1 4)
M  V30 END COLLECTION
M  V30 END CTAB
M  END
>  <Molecule ChEMBL ID>
CHEMBL596544

>  <Smiles>
Cc1oc(-c2ccccc2)nc1CCCc1ccc(C[C@H](C(=O)O)n2cccn2)cc1

>  <IC50_nM>
33000

>  <Assay Description>
Displacement of [3H2]nTZD3 from GST-tagged human PPARgamma expressed in Escherichia coli by SPA

$$$$
CHEMBL5203129
Actelion Java MolfileCreator 2.0

  0  0  0  0  0  0              0 V3000
M  V30 BEGIN CTAB
M  V30 COUNTS 31 34 0 0 0
M  V30 BEGIN ATOM
M  V30 1 Cl 1.732 1.4999 0.0 0
M  V30 2 C 2.598 1.0 0.0 0
M  V30 3 C 2.598 0.0 0.0 0
M  V30 4 C 3.4641 1.4999 0.0 0
M  V30 5 C 1.732 -0.5 0.0 0
M  V30 6 C 3.4641 -0.5 0.0 0
M  V30 7 C 4.3301 1.0 0.0 0
M  V30 8 O 1.732 -1.5 0.0 0
M  V30 9 N 0.866 0.0 0.0 0
M  V30 10 C 4.3301 0.0 0.0 0
M  V30 11 C 0.0 -0.5 0.0 0
M  V30 12 C 5.1961 -0.5 0.0 0
M  V30 13 C -0.866 0.0 0.0 0
M  V30 14 C 0.0 -1.5 0.0 0
M  V30 15 O 6.0621 0.0 0.0 0
M  V30 16 N 5.1961 -1.5 0.0 0
M  V30 17 C -1.732 -0.4999 0.0 0
M  V30 18 C -0.866 -1.9999 0.0 0
M  V30 19 C 6.0621 -2.0 0.0 0
M  V30 20 N -2.6831 -0.1909 0.0 0
M  V30 21 C -1.732 -1.4999 0.0 0
M  V30 22 C -3.2708 -0.9999 0.0 0
M  V30 23 O -2.6831 -1.809 0.0 0
M  V30 24 C -4.2708 -0.9999 0.0 0
M  V30 25 C -4.7708 -0.1339 0.0 0
M  V30 26 C -4.7708 -1.866 0.0 0
M  V30 27 C -5.7708 -0.1339 0.0 0
M  V30 28 C -5.7708 -1.866 0.0 0
M  V30 29 C -6.2708 -0.9999 0.0 0
M  V30 30 C -7.2708 -0.9999 0.0 0
M  V30 31 C -7.7708 -1.866 0.0 0
M  V30 END ATOM
M  V30 BEGIN BOND
M  V30 1 1 1 2
M  V30 2 2 2 3
M  V30 3 1 2 4
M  V30 4 1 3 5
M  V30 5 1 3 6
M  V30 6 2 4 7
M  V30 7 2 5 8
M  V30 8 1 5 9
M  V30 9 2 6 10
M  V30 10 1 9 11
M  V30 11 1 10 12
M  V30 12 2 11 13
M  V30 13 1 11 14
M  V30 14 2 12 15
M  V30 15 1 12 16
M  V30 16 1 13 17
M  V30 17 2 14 18
M  V30 18 1 16 19
M  V30 19 1 17 20
M  V30 20 2 17 21
M  V30 21 2 20 22
M  V30 22 1 21 23
M  V30 23 1 22 24
M  V30 24 2 24 25
M  V30 25 1 24 26
M  V30 26 1 25 27
M  V30 27 2 26 28
M  V30 28 2 27 29
M  V30 29 1 29 30
M  V30 30 1 30 31
M  V30 31 1 7 10
M  V30 32 1 18 21
M  V30 33 1 22 23
M  V30 34 1 28 29
M  V30 END BOND
M  V30 END CTAB
M  END
>  <Molecule ChEMBL ID>
CHEMBL5203129

>  <Smiles>
CCc1ccc(-c2nc3cc(NC(=O)c4cc(C(=O)NC)ccc4Cl)ccc3o2)cc1

>  <IC50_nM>
33000

>  <Assay Description>
Inverse agonist activity at PPARgamma in human RT112/84-FABP4 cells assessed as reduction in PPARgamma transactivation measured by Nanoluciferase reporter gene assay

$$$$
CHEMBL391479
Actelion Java MolfileCreator 2.0

  0  0  0  0  0  0              0 V3000
M  V30 BEGIN CTAB
M  V30 COUNTS 36 39 0 0 0
M  V30 BEGIN ATOM
M  V30 1 S 6.0621 -2.0 0.0 0
M  V30 2 C 5.1961 -1.4999 0.0 0
M  V30 3 C 6.0621 -3.0 0.0 0
M  V30 4 C 5.1961 -0.5 0.0 0
M  V30 5 C 4.3301 -1.9999 0.0 0
M  V30 6 C 6.9282 -3.5 0.0 0
M  V30 7 O 6.0621 0.0 0.0 0
M  V30 8 C 4.3301 0.0 0.0 0
M  V30 9 C 3.4641 -1.5 0.0 0
M  V30 10 C 6.9282 -4.5 0.0 0
M  V30 11 C 7.7942 -3.0 0.0 0
M  V30 12 C 6.0621 1.0 0.0 0
M  V30 13 C 3.4641 -0.5 0.0 0
M  V30 14 C 4.3301 1.0 0.0 0
M  V30 15 C 2.598 -2.0 0.0 0
M  V30 16 C 7.7942 -5.0 0.0 0
M  V30 17 C 8.6602 -3.5 0.0 0
M  V30 18 C 5.1961 1.5 0.0 0
M  V30 19 O 2.598 0.0 0.0 0
M  V30 20 C 8.6602 -4.5 0.0 0
M  V30 21 C 1.732 -0.5 0.0 0
M  V30 22 O 9.5262 -5.0 0.0 0
M  V30 23 C 0.866 0.0 0.0 0
M  V30 24 C 9.5262 -6.0 0.0 0
M  V30 25 O 0.866 1.0 0.0 0
M  V30 26 O 0.0 -0.5 0.0 0
M  V30 27 C 10.3923 -6.5 0.0 0
M  V30 28 C 10.3923 -7.5 0.0 0
M  V30 29 C 11.2583 -6.0 0.0 0
M  V30 30 C 11.2583 -8.0 0.0 0
M  V30 31 C 12.1243 -6.5 0.0 0
M  V30 32 C 12.1243 -7.5 0.0 0
M  V30 33 C 12.9903 -8.0 0.0 0
M  V30 34 F 13.4903 -7.1339 0.0 0
M  V30 35 F 13.8564 -8.5 0.0 0
M  V30 36 F 12.4903 -8.866 0.0 0
M  V30 END ATOM
M  V30 BEGIN BOND
M  V30 1 1 1 2
M  V30 2 1 1 3
M  V30 3 2 2 4
M  V30 4 1 2 5
M  V30 5 1 3 6
M  V30 6 1 4 7
M  V30 7 1 4 8
M  V30 8 2 5 9
M  V30 9 2 6 10
M  V30 10 1 6 11
M  V30 11 1 7 12
M  V30 12 2 8 13
M  V30 13 1 8 14
M  V30 14 1 9 15
M  V30 15 1 10 16
M  V30 16 2 11 17
M  V30 17 1 12 18
M  V30 18 1 13 19
M  V30 19 2 16 20
M  V30 20 1 19 21
M  V30 21 1 20 22
M  V30 22 1 21 23
M  V30 23 1 22 24
M  V30 24 2 23 25
M  V30 25 1 23 26
M  V30 26 1 24 27
M  V30 27 2 27 28
M  V30 28 1 27 29
M  V30 29 1 28 30
M  V30 30 2 29 31
M  V30 31 2 30 32
M  V30 32 1 32 33
M  V30 33 1 33 34
M  V30 34 1 33 35
M  V30 35 1 33 36
M  V30 36 1 9 13
M  V30 37 1 14 18
M  V30 38 1 17 20
M  V30 39 1 31 32
M  V30 END BOND
M  V30 END CTAB
M  END
>  <Molecule ChEMBL ID>
CHEMBL391479

>  <Smiles>
Cc1cc(SCc2ccc(OCc3ccc(C(F)(F)F)cc3)cc2)c2c(c1OCC(=O)O)CCCO2

>  <IC50_nM>
33266

>  <Assay Description>
Agonist activity at PPARgamma

$$$$
CHEMBL523982
Actelion Java MolfileCreator 2.0

  0  0  0  0  0  0              0 V3000
M  V30 BEGIN CTAB
M  V30 COUNTS 32 34 0 0 0
M  V30 BEGIN ATOM
M  V30 1 Cl 10.3923 2.25 0.0 0
M  V30 2 C 9.0932 1.5 0.0 0
M  V30 3 C 7.7942 2.25 0.0 0
M  V30 4 C 9.0932 0.0 0.0 0
M  V30 5 C 6.4952 1.5 0.0 0
M  V30 6 C 7.7942 -0.75 0.0 0
M  V30 7 C 6.4952 0.0 0.0 0
M  V30 8 N 5.1961 -0.75 0.0 0
M  V30 9 C 3.8971 0.0 0.0 0
M  V30 10 S 3.8971 1.5 0.0 0
M  V30 11 N 2.598 -0.75 0.0 0
M  V30 12 S 1.299 0.0 0.0 0
M  V30 13 O 2.049 1.299 0.0 0
M  V30 14 O 0.549 1.299 0.0 0
M  V30 15 C 0.0 -0.75 0.0 0
M  V30 16 C -1.299 0.0 0.0 0
M  V30 17 C 0.0 -2.25 0.0 0
M  V30 18 C -2.598 -0.75 0.0 0
M  V30 19 C -1.299 -3.0 0.0 0
M  V30 20 C -2.598 -2.25 0.0 0
M  V30 21 C -3.8971 -3.0 0.0 0
M  V30 22 C -5.1961 -2.25 0.0 0
M  V30 23 N -6.4952 -3.0 0.0 0
M  V30 24 S -7.7942 -2.25 0.0 0
M  V30 25 O -7.0442 -0.951 0.0 0
M  V30 26 O -8.5442 -0.951 0.0 0
M  V30 27 C -9.0932 -3.0 0.0 0
M  V30 28 C -10.3923 -2.25 0.0 0
M  V30 29 C -9.0932 -4.5 0.0 0
M  V30 30 C -11.6913 -3.0 0.0 0
M  V30 31 C -10.3923 -5.25 0.0 0
M  V30 32 C -11.6913 -4.5 0.0 0
M  V30 END ATOM
M  V30 BEGIN BOND
M  V30 1 1 1 2
M  V30 2 2 2 3
M  V30 3 1 2 4
M  V30 4 1 3 5
M  V30 5 2 4 6
M  V30 6 2 5 7
M  V30 7 1 7 8
M  V30 8 1 8 9
M  V30 9 2 9 10
M  V30 10 1 9 11
M  V30 11 1 11 12
M  V30 12 2 12 13
M  V30 13 2 12 14
M  V30 14 1 12 15
M  V30 15 2 15 16
M  V30 16 1 15 17
M  V30 17 1 16 18
M  V30 18 2 17 19
M  V30 19 2 18 20
M  V30 20 1 20 21
M  V30 21 1 21 22
M  V30 22 1 22 23
M  V30 23 1 23 24
M  V30 24 2 24 25
M  V30 25 2 24 26
M  V30 26 1 24 27
M  V30 27 2 27 28
M  V30 28 1 27 29
M  V30 29 1 28 30
M  V30 30 2 29 31
M  V30 31 2 30 32
M  V30 32 1 6 7
M  V30 33 1 19 20
M  V30 34 1 31 32
M  V30 END BOND
M  V30 END CTAB
M  END
>  <Molecule ChEMBL ID>
CHEMBL523982

>  <Smiles>
O=S(=O)(NCCc1ccc(S(=O)(=O)NC(=S)Nc2ccc(Cl)cc2)cc1)c1ccccc1

>  <IC50_nM>
33300

>  <Assay Description>
Displacement of fluormone-PPARgamma green from GST-tagged PPARgamma-LBD (unknown origin) by fluorescence polarization assay

$$$$
CHEMBL391479
Actelion Java MolfileCreator 2.0

  0  0  0  0  0  0              0 V3000
M  V30 BEGIN CTAB
M  V30 COUNTS 36 39 0 0 0
M  V30 BEGIN ATOM
M  V30 1 S 6.0621 -2.0 0.0 0
M  V30 2 C 5.1961 -1.4999 0.0 0
M  V30 3 C 6.0621 -3.0 0.0 0
M  V30 4 C 5.1961 -0.5 0.0 0
M  V30 5 C 4.3301 -1.9999 0.0 0
M  V30 6 C 6.9282 -3.5 0.0 0
M  V30 7 O 6.0621 0.0 0.0 0
M  V30 8 C 4.3301 0.0 0.0 0
M  V30 9 C 3.4641 -1.5 0.0 0
M  V30 10 C 6.9282 -4.5 0.0 0
M  V30 11 C 7.7942 -3.0 0.0 0
M  V30 12 C 6.0621 1.0 0.0 0
M  V30 13 C 3.4641 -0.5 0.0 0
M  V30 14 C 4.3301 1.0 0.0 0
M  V30 15 C 2.598 -2.0 0.0 0
M  V30 16 C 7.7942 -5.0 0.0 0
M  V30 17 C 8.6602 -3.5 0.0 0
M  V30 18 C 5.1961 1.5 0.0 0
M  V30 19 O 2.598 0.0 0.0 0
M  V30 20 C 8.6602 -4.5 0.0 0
M  V30 21 C 1.732 -0.5 0.0 0
M  V30 22 O 9.5262 -5.0 0.0 0
M  V30 23 C 0.866 0.0 0.0 0
M  V30 24 C 9.5262 -6.0 0.0 0
M  V30 25 O 0.866 1.0 0.0 0
M  V30 26 O 0.0 -0.5 0.0 0
M  V30 27 C 10.3923 -6.5 0.0 0
M  V30 28 C 10.3923 -7.5 0.0 0
M  V30 29 C 11.2583 -6.0 0.0 0
M  V30 30 C 11.2583 -8.0 0.0 0
M  V30 31 C 12.1243 -6.5 0.0 0
M  V30 32 C 12.1243 -7.5 0.0 0
M  V30 33 C 12.9903 -8.0 0.0 0
M  V30 34 F 13.4903 -7.1339 0.0 0
M  V30 35 F 13.8564 -8.5 0.0 0
M  V30 36 F 12.4903 -8.866 0.0 0
M  V30 END ATOM
M  V30 BEGIN BOND
M  V30 1 1 1 2
M  V30 2 1 1 3
M  V30 3 2 2 4
M  V30 4 1 2 5
M  V30 5 1 3 6
M  V30 6 1 4 7
M  V30 7 1 4 8
M  V30 8 2 5 9
M  V30 9 2 6 10
M  V30 10 1 6 11
M  V30 11 1 7 12
M  V30 12 2 8 13
M  V30 13 1 8 14
M  V30 14 1 9 15
M  V30 15 1 10 16
M  V30 16 2 11 17
M  V30 17 1 12 18
M  V30 18 1 13 19
M  V30 19 2 16 20
M  V30 20 1 19 21
M  V30 21 1 20 22
M  V30 22 1 21 23
M  V30 23 1 22 24
M  V30 24 2 23 25
M  V30 25 1 23 26
M  V30 26 1 24 27
M  V30 27 2 27 28
M  V30 28 1 27 29
M  V30 29 1 28 30
M  V30 30 2 29 31
M  V30 31 2 30 32
M  V30 32 1 32 33
M  V30 33 1 33 34
M  V30 34 1 33 35
M  V30 35 1 33 36
M  V30 36 1 9 13
M  V30 37 1 14 18
M  V30 38 1 17 20
M  V30 39 1 31 32
M  V30 END BOND
M  V30 END CTAB
M  END
>  <Molecule ChEMBL ID>
CHEMBL391479

>  <Smiles>
Cc1cc(SCc2ccc(OCc3ccc(C(F)(F)F)cc3)cc2)c2c(c1OCC(=O)O)CCCO2

>  <IC50_nM>
33300

>  <Assay Description>
Displacement of [3H]5-(4-(3-(5-methyl-2-phenyloxazol-4-yl)propanoyl)benzyl)thiazolidine-2,4-dione from human PPARgamma after 2 hrs by SPA assay

$$$$
CHEMBL465747
Actelion Java MolfileCreator 2.0

  0  0  0  0  0  0              0 V3000
M  V30 BEGIN CTAB
M  V30 COUNTS 33 35 0 0 0
M  V30 BEGIN ATOM
M  V30 1 Cl 10.3923 2.25 0.0 0
M  V30 2 C 9.0932 1.5 0.0 0
M  V30 3 C 7.7942 2.25 0.0 0
M  V30 4 C 9.0932 0.0 0.0 0
M  V30 5 C 6.4952 1.5 0.0 0
M  V30 6 C 7.7942 -0.75 0.0 0
M  V30 7 C 6.4952 0.0 0.0 0
M  V30 8 S 5.1961 -0.75 0.0 0
M  V30 9 O 4.4461 -2.049 0.0 0
M  V30 10 O 5.9461 -2.049 0.0 0
M  V30 11 N 3.8971 0.0 0.0 0
M  V30 12 C 2.598 -0.75 0.0 0
M  V30 13 C 1.299 0.0 0.0 0
M  V30 14 C 0.0 -0.75 0.0 0
M  V30 15 C -1.299 0.0 0.0 0
M  V30 16 C 0.0 -2.25 0.0 0
M  V30 17 C -2.598 -0.75 0.0 0
M  V30 18 C -1.299 -3.0 0.0 0
M  V30 19 C -2.598 -2.25 0.0 0
M  V30 20 S -3.8971 -3.0 0.0 0
M  V30 21 O -4.6471 -4.299 0.0 0
M  V30 22 O -3.1471 -4.299 0.0 0
M  V30 23 N -5.1961 -2.25 0.0 0
M  V30 24 C -6.4952 -3.0 0.0 0
M  V30 25 S -6.4952 -4.5 0.0 0
M  V30 26 N -7.7942 -2.25 0.0 0
M  V30 27 C -9.0932 -3.0 0.0 0
M  V30 28 C -10.3923 -2.25 0.0 0
M  V30 29 C -9.0932 -4.5 0.0 0
M  V30 30 C -11.6913 -3.0 0.0 0
M  V30 31 C -10.3923 -5.25 0.0 0
M  V30 32 C -11.6913 -4.5 0.0 0
M  V30 33 Cl -12.9904 -5.25 0.0 0
M  V30 END ATOM
M  V30 BEGIN BOND
M  V30 1 1 1 2
M  V30 2 2 2 3
M  V30 3 1 2 4
M  V30 4 1 3 5
M  V30 5 2 4 6
M  V30 6 2 5 7
M  V30 7 1 7 8
M  V30 8 2 8 9
M  V30 9 2 8 10
M  V30 10 1 8 11
M  V30 11 1 11 12
M  V30 12 1 12 13
M  V30 13 1 13 14
M  V30 14 2 14 15
M  V30 15 1 14 16
M  V30 16 1 15 17
M  V30 17 2 16 18
M  V30 18 2 17 19
M  V30 19 1 19 20
M  V30 20 2 20 21
M  V30 21 2 20 22
M  V30 22 1 20 23
M  V30 23 1 23 24
M  V30 24 2 24 25
M  V30 25 1 24 26
M  V30 26 1 26 27
M  V30 27 2 27 28
M  V30 28 1 27 29
M  V30 29 1 28 30
M  V30 30 2 29 31
M  V30 31 2 30 32
M  V30 32 1 32 33
M  V30 33 1 6 7
M  V30 34 1 18 19
M  V30 35 1 31 32
M  V30 END BOND
M  V30 END CTAB
M  END
>  <Molecule ChEMBL ID>
CHEMBL465747

>  <Smiles>
O=S(=O)(NCCc1ccc(S(=O)(=O)NC(=S)Nc2ccc(Cl)cc2)cc1)c1ccc(Cl)cc1

>  <IC50_nM>
33300

>  <Assay Description>
Displacement of fluormone-PPARgamma green from GST-tagged PPARgamma-LBD (unknown origin) by fluorescence polarization assay

$$$$
CHEMBL465748
Actelion Java MolfileCreator 2.0

  0  0  0  0  0  0              0 V3000
M  V30 BEGIN CTAB
M  V30 COUNTS 34 36 0 0 0
M  V30 BEGIN ATOM
M  V30 1 Cl 10.3923 2.25 0.0 0
M  V30 2 C 9.0932 1.5 0.0 0
M  V30 3 C 7.7942 2.25 0.0 0
M  V30 4 C 9.0932 0.0 0.0 0
M  V30 5 C 6.4952 1.5 0.0 0
M  V30 6 C 7.7942 -0.75 0.0 0
M  V30 7 C 6.4952 0.0 0.0 0
M  V30 8 S 5.1961 -0.75 0.0 0
M  V30 9 O 4.4461 -2.049 0.0 0
M  V30 10 O 5.9461 -2.049 0.0 0
M  V30 11 N 3.8971 0.0 0.0 0
M  V30 12 C 2.598 -0.75 0.0 0
M  V30 13 C 1.299 0.0 0.0 0
M  V30 14 C 0.0 -0.75 0.0 0
M  V30 15 C -1.299 0.0 0.0 0
M  V30 16 C 0.0 -2.25 0.0 0
M  V30 17 C -2.598 -0.75 0.0 0
M  V30 18 C -1.299 -3.0 0.0 0
M  V30 19 C -2.598 -2.25 0.0 0
M  V30 20 S -3.8971 -3.0 0.0 0
M  V30 21 O -4.6471 -4.299 0.0 0
M  V30 22 O -3.1471 -4.299 0.0 0
M  V30 23 N -5.1961 -2.25 0.0 0
M  V30 24 C -6.4952 -3.0 0.0 0
M  V30 25 S -6.4952 -4.5 0.0 0
M  V30 26 N -7.7942 -2.25 0.0 0
M  V30 27 C -9.0932 -3.0 0.0 0
M  V30 28 C -10.3923 -2.25 0.0 0
M  V30 29 C -9.0932 -4.5 0.0 0
M  V30 30 C -11.6913 -3.0 0.0 0
M  V30 31 C -10.3923 -5.25 0.0 0
M  V30 32 C -11.6913 -4.5 0.0 0
M  V30 33 O -12.9904 -5.25 0.0 0
M  V30 34 C -12.9904 -6.75 0.0 0
M  V30 END ATOM
M  V30 BEGIN BOND
M  V30 1 1 1 2
M  V30 2 2 2 3
M  V30 3 1 2 4
M  V30 4 1 3 5
M  V30 5 2 4 6
M  V30 6 2 5 7
M  V30 7 1 7 8
M  V30 8 2 8 9
M  V30 9 2 8 10
M  V30 10 1 8 11
M  V30 11 1 11 12
M  V30 12 1 12 13
M  V30 13 1 13 14
M  V30 14 2 14 15
M  V30 15 1 14 16
M  V30 16 1 15 17
M  V30 17 2 16 18
M  V30 18 2 17 19
M  V30 19 1 19 20
M  V30 20 2 20 21
M  V30 21 2 20 22
M  V30 22 1 20 23
M  V30 23 1 23 24
M  V30 24 2 24 25
M  V30 25 1 24 26
M  V30 26 1 26 27
M  V30 27 2 27 28
M  V30 28 1 27 29
M  V30 29 1 28 30
M  V30 30 2 29 31
M  V30 31 2 30 32
M  V30 32 1 32 33
M  V30 33 1 33 34
M  V30 34 1 6 7
M  V30 35 1 18 19
M  V30 36 1 31 32
M  V30 END BOND
M  V30 END CTAB
M  END
>  <Molecule ChEMBL ID>
CHEMBL465748

>  <Smiles>
COc1ccc(NC(=S)NS(=O)(=O)c2ccc(CCNS(=O)(=O)c3ccc(Cl)cc3)cc2)cc1

>  <IC50_nM>
33300

>  <Assay Description>
Displacement of fluormone-PPARgamma green from GST-tagged PPARgamma-LBD (unknown origin) by fluorescence polarization assay

$$$$
CHEMBL391479
Actelion Java MolfileCreator 2.0

  0  0  0  0  0  0              0 V3000
M  V30 BEGIN CTAB
M  V30 COUNTS 36 39 0 0 0
M  V30 BEGIN ATOM
M  V30 1 S 6.0621 -2.0 0.0 0
M  V30 2 C 5.1961 -1.4999 0.0 0
M  V30 3 C 6.0621 -3.0 0.0 0
M  V30 4 C 5.1961 -0.5 0.0 0
M  V30 5 C 4.3301 -1.9999 0.0 0
M  V30 6 C 6.9282 -3.5 0.0 0
M  V30 7 O 6.0621 0.0 0.0 0
M  V30 8 C 4.3301 0.0 0.0 0
M  V30 9 C 3.4641 -1.5 0.0 0
M  V30 10 C 6.9282 -4.5 0.0 0
M  V30 11 C 7.7942 -3.0 0.0 0
M  V30 12 C 6.0621 1.0 0.0 0
M  V30 13 C 3.4641 -0.5 0.0 0
M  V30 14 C 4.3301 1.0 0.0 0
M  V30 15 C 2.598 -2.0 0.0 0
M  V30 16 C 7.7942 -5.0 0.0 0
M  V30 17 C 8.6602 -3.5 0.0 0
M  V30 18 C 5.1961 1.5 0.0 0
M  V30 19 O 2.598 0.0 0.0 0
M  V30 20 C 8.6602 -4.5 0.0 0
M  V30 21 C 1.732 -0.5 0.0 0
M  V30 22 O 9.5262 -5.0 0.0 0
M  V30 23 C 0.866 0.0 0.0 0
M  V30 24 C 9.5262 -6.0 0.0 0
M  V30 25 O 0.866 1.0 0.0 0
M  V30 26 O 0.0 -0.5 0.0 0
M  V30 27 C 10.3923 -6.5 0.0 0
M  V30 28 C 10.3923 -7.5 0.0 0
M  V30 29 C 11.2583 -6.0 0.0 0
M  V30 30 C 11.2583 -8.0 0.0 0
M  V30 31 C 12.1243 -6.5 0.0 0
M  V30 32 C 12.1243 -7.5 0.0 0
M  V30 33 C 12.9903 -8.0 0.0 0
M  V30 34 F 13.4903 -7.1339 0.0 0
M  V30 35 F 13.8564 -8.5 0.0 0
M  V30 36 F 12.4903 -8.866 0.0 0
M  V30 END ATOM
M  V30 BEGIN BOND
M  V30 1 1 1 2
M  V30 2 1 1 3
M  V30 3 2 2 4
M  V30 4 1 2 5
M  V30 5 1 3 6
M  V30 6 1 4 7
M  V30 7 1 4 8
M  V30 8 2 5 9
M  V30 9 2 6 10
M  V30 10 1 6 11
M  V30 11 1 7 12
M  V30 12 2 8 13
M  V30 13 1 8 14
M  V30 14 1 9 15
M  V30 15 1 10 16
M  V30 16 2 11 17
M  V30 17 1 12 18
M  V30 18 1 13 19
M  V30 19 2 16 20
M  V30 20 1 19 21
M  V30 21 1 20 22
M  V30 22 1 21 23
M  V30 23 1 22 24
M  V30 24 2 23 25
M  V30 25 1 23 26
M  V30 26 1 24 27
M  V30 27 2 27 28
M  V30 28 1 27 29
M  V30 29 1 28 30
M  V30 30 2 29 31
M  V30 31 2 30 32
M  V30 32 1 32 33
M  V30 33 1 33 34
M  V30 34 1 33 35
M  V30 35 1 33 36
M  V30 36 1 9 13
M  V30 37 1 14 18
M  V30 38 1 17 20
M  V30 39 1 31 32
M  V30 END BOND
M  V30 END CTAB
M  END
>  <Molecule ChEMBL ID>
CHEMBL391479

>  <Smiles>
Cc1cc(SCc2ccc(OCc3ccc(C(F)(F)F)cc3)cc2)c2c(c1OCC(=O)O)CCCO2

>  <IC50_nM>
33300

>  <Assay Description>
Agonist activity at PPARgamma

$$$$
CHEMBL4088048
Actelion Java MolfileCreator 2.0

  0  0  0  0  0  0              0 V3000
M  V30 BEGIN CTAB
M  V30 COUNTS 28 31 0 0 0
M  V30 BEGIN ATOM
M  V30 1 S 7.8987 0.0054 0.0 0
M  V30 2 C 8.8769 -0.2024 0.0 0
M  V30 3 C 7.7942 0.9999 0.0 0
M  V30 4 O 9.2836 -1.1159 0.0 0
M  V30 5 N 9.3769 0.6635 0.0 0
M  V30 6 C 8.7077 1.4067 0.0 0
M  V30 7 C 6.9282 1.4999 0.0 0
M  V30 8 O 8.9156 2.3848 0.0 0
M  V30 9 C 6.0621 0.9999 0.0 0
M  V30 10 C 5.1961 1.4999 0.0 0
M  V30 11 C 6.0621 0.0 0.0 0
M  V30 12 C 4.3301 0.9999 0.0 0
M  V30 13 C 5.1961 -0.5 0.0 0
M  V30 14 C 4.3301 0.0 0.0 0
M  V30 15 O 3.4641 -0.5 0.0 0
M  V30 16 C 2.598 0.0 0.0 0
M  V30 17 C 1.732 -0.5 0.0 0
M  V30 18 N 0.866 0.0 0.0 0
M  V30 19 C 0.866 1.0 0.0 0
M  V30 20 C 0.0 -0.5 0.0 0
M  V30 21 N 1.675 1.5877 0.0 0
M  V30 22 N 0.057 1.5877 0.0 0
M  V30 23 C 1.366 2.5388 0.0 0
M  V30 24 C 0.366 2.5388 0.0 0
M  V30 25 C 1.866 3.4048 0.0 0
M  V30 26 C -0.1339 3.4048 0.0 0
M  V30 27 C 1.366 4.2708 0.0 0
M  V30 28 C 0.366 4.2708 0.0 0
M  V30 END ATOM
M  V30 BEGIN BOND
M  V30 1 1 1 2
M  V30 2 1 1 3
M  V30 3 2 2 4
M  V30 4 1 2 5
M  V30 5 1 3 6
M  V30 6 2 3 7
M  V30 7 2 6 8
M  V30 8 1 7 9
M  V30 9 2 9 10
M  V30 10 1 9 11
M  V30 11 1 10 12
M  V30 12 2 11 13
M  V30 13 2 12 14
M  V30 14 1 14 15
M  V30 15 1 15 16
M  V30 16 1 16 17
M  V30 17 1 17 18
M  V30 18 1 18 19
M  V30 19 1 18 20
M  V30 20 2 19 21
M  V30 21 1 19 22
M  V30 22 1 21 23
M  V30 23 1 22 24
M  V30 24 1 23 25
M  V30 25 1 24 26
M  V30 26 2 25 27
M  V30 27 2 26 28
M  V30 28 1 5 6
M  V30 29 1 13 14
M  V30 30 2 23 24
M  V30 31 1 27 28
M  V30 END BOND
M  V30 END CTAB
M  END
>  <Molecule ChEMBL ID>
CHEMBL4088048

>  <Smiles>
CN(CCOc1ccc(/C=C2\SC(=O)NC2=O)cc1)c1nc2ccccc2[nH]1

>  <IC50_nM>
38000

>  <Assay Description>
Transrepression activity at human PPARgamma expressed in HEK293 cells assessed as inhibition of TNFalpha induced NF-kappaB promoter activity pretreated for 4 hrs followed by TNFalpha stimulation after 3 hrs by luciferase reporter gene assay

$$$$
CHEMBL2403499
Actelion Java MolfileCreator 2.0

  0  0  0  0  0  0              0 V3000
M  V30 BEGIN CTAB
M  V30 COUNTS 34 36 0 0 0
M  V30 BEGIN ATOM
M  V30 1 O 6.0621 1.0 0.0 0
M  V30 2 C 6.0621 0.0 0.0 0
M  V30 3 N 6.9282 -0.5 0.0 0
M  V30 4 C 5.1961 -0.5 0.0 0
M  V30 5 C 7.7942 0.0 0.0 0
M  V30 6 C 6.9282 -1.4999 0.0 0
M  V30 7 C 4.3301 0.0 0.0 0
M  V30 8 C 5.1961 -1.4999 0.0 0
M  V30 9 C 8.6602 -0.4999 0.0 0
M  V30 10 C 7.7942 1.0 0.0 0
M  V30 11 C 7.7942 -2.0 0.0 0
M  V30 12 C 3.4641 -0.5 0.0 0
M  V30 13 C 4.3301 -1.9999 0.0 0
M  V30 14 C 7.7942 -3.0 0.0 0
M  V30 15 C 8.6602 -1.5 0.0 0
M  V30 16 C 3.4641 -1.4999 0.0 0
M  V30 17 C 2.598 0.0 0.0 0
M  V30 18 C 8.6602 -3.5 0.0 0
M  V30 19 C 9.5262 -2.0 0.0 0
M  V30 20 N 1.732 -0.5 0.0 0
M  V30 21 C 9.5262 -3.0 0.0 0
M  V30 22 C 0.866 0.0 0.0 0
M  V30 23 C 10.3923 -3.5 0.0 0
M  V30 24 O 0.866 1.0 0.0 0
M  V30 25 C 0.0 -0.5 0.0 0
M  V30 26 C 11.2583 -3.0 0.0 0
M  V30 27 C -0.866 0.0 0.0 0
M  V30 28 C 0.0 -1.4999 0.0 0
M  V30 29 C 12.1243 -3.5 0.0 0
M  V30 30 C -1.732 -0.4999 0.0 0
M  V30 31 C -0.866 -1.9999 0.0 0
M  V30 32 O 12.1243 -4.5 0.0 0
M  V30 33 O 12.9903 -3.0 0.0 0
M  V30 34 C -1.732 -1.4999 0.0 0
M  V30 END ATOM
M  V30 BEGIN BOND
M  V30 1 2 1 2
M  V30 2 1 2 3
M  V30 3 1 2 4
M  V30 4 1 3 5
M  V30 5 1 3 6
M  V30 6 2 4 7
M  V30 7 1 4 8
M  V30 8 1 5 9
M  V30 9 1 5 10
M  V30 10 1 6 11
M  V30 11 1 7 12
M  V30 12 2 8 13
M  V30 13 2 11 14
M  V30 14 1 11 15
M  V30 15 2 12 16
M  V30 16 1 12 17
M  V30 17 1 14 18
M  V30 18 2 15 19
M  V30 19 1 17 20
M  V30 20 2 18 21
M  V30 21 1 20 22
M  V30 22 1 21 23
M  V30 23 2 22 24
M  V30 24 1 22 25
M  V30 25 1 23 26
M  V30 26 2 25 27
M  V30 27 1 25 28
M  V30 28 1 26 29
M  V30 29 1 27 30
M  V30 30 2 28 31
M  V30 31 2 29 32
M  V30 32 1 29 33
M  V30 33 2 30 34
M  V30 34 1 13 16
M  V30 35 1 19 21
M  V30 36 1 31 34
M  V30 END BOND
M  V30 END CTAB
M  END
>  <Molecule ChEMBL ID>
CHEMBL2403499

>  <Smiles>
CC(C)N(Cc1ccc(CCC(=O)O)cc1)C(=O)c1cccc(CNC(=O)c2ccccc2)c1

>  <IC50_nM>
38700

>  <Assay Description>
Binding affinity to GST-tagged human PPARgamma LBD by ligand displacement assay

$$$$
CHEMBL491039
Actelion Java MolfileCreator 2.0

  0  0  0  0  0  0              0 V3000
M  V30 BEGIN CTAB
M  V30 COUNTS 32 35 0 0 0
M  V30 BEGIN ATOM
M  V30 1 S 3.4641 -0.5 0.0 0
M  V30 2 C 4.3301 0.0 0.0 0
M  V30 3 C 2.598 0.0 0.0 0
M  V30 4 N 5.2436 -0.4067 0.0 0
M  V30 5 N 4.4346 0.9945 0.0 0
M  V30 6 C 1.732 -0.5 0.0 0
M  V30 7 N 5.9128 0.3364 0.0 0
M  V30 8 C 5.4128 1.2024 0.0 0
M  V30 9 C 3.6915 1.6636 0.0 0
M  V30 10 O 1.732 -1.5 0.0 0
M  V30 11 N 0.866 0.0 0.0 0
M  V30 12 C 5.8195 2.1159 0.0 0
M  V30 13 C 2.7404 1.3546 0.0 0
M  V30 14 C 0.0 -0.5 0.0 0
M  V30 15 O 6.7976 2.3238 0.0 0
M  V30 16 C 5.3195 2.982 0.0 0
M  V30 17 C -0.866 0.0 0.0 0
M  V30 18 C 0.0 -1.4999 0.0 0
M  V30 19 C 6.9022 3.3184 0.0 0
M  V30 20 C 5.9886 3.7251 0.0 0
M  V30 21 C -1.732 -0.4999 0.0 0
M  V30 22 C -0.866 -1.9999 0.0 0
M  V30 23 C 7.7112 3.9061 0.0 0
M  V30 24 C 5.8841 4.7196 0.0 0
M  V30 25 C -1.732 -1.4999 0.0 0
M  V30 26 O 8.6247 3.4994 0.0 0
M  V30 27 C 7.6067 4.9007 0.0 0
M  V30 28 C 6.6931 5.3074 0.0 0
M  V30 29 C -2.598 -1.9999 0.0 0
M  V30 30 C 9.4337 4.0872 0.0 0
M  V30 31 O -3.4641 -1.4999 0.0 0
M  V30 32 O -2.598 -2.9999 0.0 0
M  V30 END ATOM
M  V30 BEGIN BOND
M  V30 1 1 1 2
M  V30 2 1 1 3
M  V30 3 2 2 4
M  V30 4 1 2 5
M  V30 5 1 3 6
M  V30 6 1 4 7
M  V30 7 1 5 8
M  V30 8 1 5 9
M  V30 9 2 6 10
M  V30 10 1 6 11
M  V30 11 1 8 12
M  V30 12 1 9 13
M  V30 13 1 11 14
M  V30 14 1 12 15
M  V30 15 2 12 16
M  V30 16 2 14 17
M  V30 17 1 14 18
M  V30 18 1 15 19
M  V30 19 1 16 20
M  V30 20 1 17 21
M  V30 21 2 18 22
M  V30 22 1 19 23
M  V30 23 1 20 24
M  V30 24 2 21 25
M  V30 25 1 23 26
M  V30 26 2 23 27
M  V30 27 2 24 28
M  V30 28 1 25 29
M  V30 29 1 26 30
M  V30 30 2 29 31
M  V30 31 1 29 32
M  V30 32 2 7 8
M  V30 33 2 19 20
M  V30 34 1 22 25
M  V30 35 1 27 28
M  V30 END BOND
M  V30 END CTAB
M  END
>  <Molecule ChEMBL ID>
CHEMBL491039

>  <Smiles>
CCn1c(SCC(=O)Nc2ccc(C(=O)O)cc2)nnc1-c1cc2cccc(OC)c2o1

>  <IC50_nM>
39994.5

>  <Assay Description>
Agonist activity at PPARgamma

$$$$
CHEMBL491039
Actelion Java MolfileCreator 2.0

  0  0  0  0  0  0              0 V3000
M  V30 BEGIN CTAB
M  V30 COUNTS 32 35 0 0 0
M  V30 BEGIN ATOM
M  V30 1 S 3.4641 -0.5 0.0 0
M  V30 2 C 4.3301 0.0 0.0 0
M  V30 3 C 2.598 0.0 0.0 0
M  V30 4 N 5.2436 -0.4067 0.0 0
M  V30 5 N 4.4346 0.9945 0.0 0
M  V30 6 C 1.732 -0.5 0.0 0
M  V30 7 N 5.9128 0.3364 0.0 0
M  V30 8 C 5.4128 1.2024 0.0 0
M  V30 9 C 3.6915 1.6636 0.0 0
M  V30 10 O 1.732 -1.5 0.0 0
M  V30 11 N 0.866 0.0 0.0 0
M  V30 12 C 5.8195 2.1159 0.0 0
M  V30 13 C 2.7404 1.3546 0.0 0
M  V30 14 C 0.0 -0.5 0.0 0
M  V30 15 O 6.7976 2.3238 0.0 0
M  V30 16 C 5.3195 2.982 0.0 0
M  V30 17 C -0.866 0.0 0.0 0
M  V30 18 C 0.0 -1.4999 0.0 0
M  V30 19 C 6.9022 3.3184 0.0 0
M  V30 20 C 5.9886 3.7251 0.0 0
M  V30 21 C -1.732 -0.4999 0.0 0
M  V30 22 C -0.866 -1.9999 0.0 0
M  V30 23 C 7.7112 3.9061 0.0 0
M  V30 24 C 5.8841 4.7196 0.0 0
M  V30 25 C -1.732 -1.4999 0.0 0
M  V30 26 O 8.6247 3.4994 0.0 0
M  V30 27 C 7.6067 4.9007 0.0 0
M  V30 28 C 6.6931 5.3074 0.0 0
M  V30 29 C -2.598 -1.9999 0.0 0
M  V30 30 C 9.4337 4.0872 0.0 0
M  V30 31 O -3.4641 -1.4999 0.0 0
M  V30 32 O -2.598 -2.9999 0.0 0
M  V30 END ATOM
M  V30 BEGIN BOND
M  V30 1 1 1 2
M  V30 2 1 1 3
M  V30 3 2 2 4
M  V30 4 1 2 5
M  V30 5 1 3 6
M  V30 6 1 4 7
M  V30 7 1 5 8
M  V30 8 1 5 9
M  V30 9 2 6 10
M  V30 10 1 6 11
M  V30 11 1 8 12
M  V30 12 1 9 13
M  V30 13 1 11 14
M  V30 14 1 12 15
M  V30 15 2 12 16
M  V30 16 2 14 17
M  V30 17 1 14 18
M  V30 18 1 15 19
M  V30 19 1 16 20
M  V30 20 1 17 21
M  V30 21 2 18 22
M  V30 22 1 19 23
M  V30 23 1 20 24
M  V30 24 2 21 25
M  V30 25 1 23 26
M  V30 26 2 23 27
M  V30 27 2 24 28
M  V30 28 1 25 29
M  V30 29 1 26 30
M  V30 30 2 29 31
M  V30 31 1 29 32
M  V30 32 2 7 8
M  V30 33 2 19 20
M  V30 34 1 22 25
M  V30 35 1 27 28
M  V30 END BOND
M  V30 END CTAB
M  END
>  <Molecule ChEMBL ID>
CHEMBL491039

>  <Smiles>
CCn1c(SCC(=O)Nc2ccc(C(=O)O)cc2)nnc1-c1cc2cccc(OC)c2o1

>  <IC50_nM>
40000

>  <Assay Description>
Displacement of fluorescent pan PPAR agonist form GST-tagged human PPARgamma ligand binding domain by FRET assay

$$$$
CHEMBL4059763
Actelion Java MolfileCreator 2.0

  0  0  0  0  0  0              0 V3000
M  V30 BEGIN CTAB
M  V30 COUNTS 29 32 0 0 0
M  V30 BEGIN ATOM
M  V30 1 S 7.8987 0.0054 0.0 0
M  V30 2 C 8.8769 -0.2024 0.0 0
M  V30 3 C 7.7942 0.9999 0.0 0
M  V30 4 O 9.2836 -1.1159 0.0 0
M  V30 5 N 9.3769 0.6635 0.0 0
M  V30 6 C 8.7077 1.4067 0.0 0
M  V30 7 C 6.9282 1.4999 0.0 0
M  V30 8 O 8.9156 2.3848 0.0 0
M  V30 9 C 6.0621 0.9999 0.0 0
M  V30 10 C 5.1961 1.4999 0.0 0
M  V30 11 C 6.0621 0.0 0.0 0
M  V30 12 C 4.3301 0.9999 0.0 0
M  V30 13 C 5.1961 -0.5 0.0 0
M  V30 14 C 4.3301 0.0 0.0 0
M  V30 15 O 3.4641 -0.5 0.0 0
M  V30 16 C 2.598 0.0 0.0 0
M  V30 17 C 1.732 -0.5 0.0 0
M  V30 18 N 0.866 0.0 0.0 0
M  V30 19 C 0.866 1.0 0.0 0
M  V30 20 C 0.0 -0.5 0.0 0
M  V30 21 C 1.732 1.4999 0.0 0
M  V30 22 C 0.0 1.4999 0.0 0
M  V30 23 C 1.732 2.5 0.0 0
M  V30 24 C 0.0 2.5 0.0 0
M  V30 25 C 0.866 3.0 0.0 0
M  V30 26 C 2.598 2.9999 0.0 0
M  V30 27 C 0.866 4.0 0.0 0
M  V30 28 C 2.598 4.0 0.0 0
M  V30 29 C 1.732 4.5 0.0 0
M  V30 END ATOM
M  V30 BEGIN BOND
M  V30 1 1 1 2
M  V30 2 1 1 3
M  V30 3 2 2 4
M  V30 4 1 2 5
M  V30 5 1 3 6
M  V30 6 2 3 7
M  V30 7 2 6 8
M  V30 8 1 7 9
M  V30 9 2 9 10
M  V30 10 1 9 11
M  V30 11 1 10 12
M  V30 12 2 11 13
M  V30 13 2 12 14
M  V30 14 1 14 15
M  V30 15 1 15 16
M  V30 16 1 16 17
M  V30 17 1 17 18
M  V30 18 1 18 19
M  V30 19 1 18 20
M  V30 20 2 19 21
M  V30 21 1 19 22
M  V30 22 1 21 23
M  V30 23 2 22 24
M  V30 24 1 23 25
M  V30 25 2 23 26
M  V30 26 2 25 27
M  V30 27 1 26 28
M  V30 28 1 27 29
M  V30 29 1 5 6
M  V30 30 1 13 14
M  V30 31 1 24 25
M  V30 32 2 28 29
M  V30 END BOND
M  V30 END CTAB
M  END
>  <Molecule ChEMBL ID>
CHEMBL4059763

>  <Smiles>
CN(CCOc1ccc(/C=C2\SC(=O)NC2=O)cc1)c1ccc2ccccc2c1

>  <IC50_nM>
40000

>  <Assay Description>
Transrepression activity at human PPARgamma expressed in HEK293 cells assessed as inhibition of TNFalpha induced NF-kappaB promoter activity pretreated for 4 hrs followed by TNFalpha stimulation after 3 hrs by luciferase reporter gene assay

$$$$
CHEMBL456071
Actelion Java MolfileCreator 2.0

  0  0  0  0  0  0              0 V3000
M  V30 BEGIN CTAB
M  V30 COUNTS 28 29 0 0 0
M  V30 BEGIN ATOM
M  V30 1 Cl 6.0621 3.9999 0.0 0
M  V30 2 C 6.0621 2.9999 0.0 0
M  V30 3 C 5.1961 2.5 0.0 0
M  V30 4 C 6.9282 2.4999 0.0 0
M  V30 5 C 5.1961 1.5 0.0 0
M  V30 6 C 6.9282 1.4999 0.0 0
M  V30 7 C 6.0621 0.9999 0.0 0
M  V30 8 C 6.0621 0.0 0.0 0 CFG=1
M  V30 9 O 6.9282 -0.5 0.0 0
M  V30 10 C 5.1961 -0.5 0.0 0
M  V30 11 C 7.7942 0.0 0.0 0
M  V30 12 O 5.1961 -1.4999 0.0 0
M  V30 13 O 4.3301 0.0 0.0 0
M  V30 14 C 8.6602 -0.5 0.0 0
M  V30 15 C 7.7942 0.9999 0.0 0
M  V30 16 C 3.4641 -0.5 0.0 0
M  V30 17 C 9.5262 0.0 0.0 0
M  V30 18 C 8.6602 1.4999 0.0 0
M  V30 19 C 2.598 0.0 0.0 0
M  V30 20 C 9.5262 0.9999 0.0 0
M  V30 21 C 10.3923 -0.4999 0.0 0
M  V30 22 N 1.732 -0.5 0.0 0
M  V30 23 F 10.8923 0.366 0.0 0
M  V30 24 F 11.2583 -0.9999 0.0 0
M  V30 25 F 9.8923 -1.366 0.0 0
M  V30 26 C 0.866 0.0 0.0 0
M  V30 27 O 0.866 1.0 0.0 0
M  V30 28 C 0.0 -0.5 0.0 0
M  V30 END ATOM
M  V30 BEGIN BOND
M  V30 1 1 1 2
M  V30 2 2 2 3
M  V30 3 1 2 4
M  V30 4 1 3 5
M  V30 5 2 4 6
M  V30 6 2 5 7
M  V30 7 1 7 8
M  V30 8 1 8 9 CFG=1
M  V30 9 1 8 10
M  V30 10 1 9 11
M  V30 11 2 10 12
M  V30 12 1 10 13
M  V30 13 2 11 14
M  V30 14 1 11 15
M  V30 15 1 13 16
M  V30 16 1 14 17
M  V30 17 2 15 18
M  V30 18 1 16 19
M  V30 19 2 17 20
M  V30 20 1 17 21
M  V30 21 1 19 22
M  V30 22 1 21 23
M  V30 23 1 21 24
M  V30 24 1 21 25
M  V30 25 1 22 26
M  V30 26 2 26 27
M  V30 27 1 26 28
M  V30 28 1 6 7
M  V30 29 1 18 20
M  V30 END BOND
M  V30 BEGIN COLLECTION
M  V30 MDLV30/STERAC1 ATOMS=(1 8)
M  V30 END COLLECTION
M  V30 END CTAB
M  END
>  <Molecule ChEMBL ID>
CHEMBL456071

>  <Smiles>
CC(=O)NCCOC(=O)C(Oc1cccc(C(F)(F)F)c1)c1ccc(Cl)cc1

>  <IC50_nM>
40000

>  <Assay Description>
Antagonist activity at human PPARgamma receptor expressed in Saccharomyces cerevisiae AH109 co-transfected with mouse CBP assessed as inhibition of rosiglitazone-induced LBD-CBP interaction by alpha-galactosidase based yeast two hybrid assay

$$$$
CHEMBL4566395
Actelion Java MolfileCreator 2.0

  0  0  0  0  0  0              0 V3000
M  V30 BEGIN CTAB
M  V30 COUNTS 36 40 0 0 0
M  V30 BEGIN ATOM
M  V30 1 O 9.4516 5.7369 0.0 0
M  V30 2 C 9.1426 4.7859 0.0 0
M  V30 3 O 8.1645 4.578 0.0 0
M  V30 4 C 9.8118 4.0427 0.0 0
M  V30 5 C 9.5027 3.0917 0.0 0
M  V30 6 C 10.7899 4.2506 0.0 0
M  V30 7 C 8.5246 2.8838 0.0 0
M  V30 8 C 10.1719 2.3485 0.0 0
M  V30 9 C 11.459 3.5075 0.0 0
M  V30 10 C 7.8555 3.6269 0.0 0
M  V30 11 C 8.2156 1.9327 0.0 0
M  V30 12 C 11.15 2.5564 0.0 0
M  V30 13 C 6.8773 3.419 0.0 0
M  V30 14 C 7.2374 1.7248 0.0 0
M  V30 15 C 6.5683 2.4679 0.0 0
M  V30 16 C 5.5902 2.26 0.0 0
M  V30 17 N 5.2811 1.309 0.0 0
M  V30 18 C 4.3301 1.0 0.0 0
M  V30 19 C 5.8689 0.5 0.0 0
M  V30 20 C 4.3301 0.0 0.0 0
M  V30 21 C 3.4641 1.5 0.0 0
M  V30 22 C 5.2811 -0.309 0.0 0
M  V30 23 C 6.8689 0.5 0.0 0
M  V30 24 C 3.4641 -0.4999 0.0 0
M  V30 25 C 2.598 0.9999 0.0 0
M  V30 26 C 5.5902 -1.26 0.0 0
M  V30 27 C 2.598 0.0 0.0 0
M  V30 28 C 1.732 -0.5 0.0 0
M  V30 29 O 1.732 -1.5 0.0 0
M  V30 30 N 0.866 0.0 0.0 0
M  V30 31 C 0.0 -0.5 0.0 0
M  V30 32 C -0.866 0.0 0.0 0
M  V30 33 C 0.0 -1.4999 0.0 0
M  V30 34 C -1.732 -0.4999 0.0 0
M  V30 35 C -0.866 -1.9999 0.0 0
M  V30 36 N -1.732 -1.4999 0.0 0
M  V30 END ATOM
M  V30 BEGIN BOND
M  V30 1 2 1 2
M  V30 2 1 2 3
M  V30 3 1 2 4
M  V30 4 2 4 5
M  V30 5 1 4 6
M  V30 6 1 5 7
M  V30 7 1 5 8
M  V30 8 2 6 9
M  V30 9 2 7 10
M  V30 10 1 7 11
M  V30 11 2 8 12
M  V30 12 1 10 13
M  V30 13 2 11 14
M  V30 14 2 13 15
M  V30 15 1 15 16
M  V30 16 1 16 17
M  V30 17 1 17 18
M  V30 18 1 17 19
M  V30 19 2 18 20
M  V30 20 1 18 21
M  V30 21 2 19 22
M  V30 22 1 19 23
M  V30 23 1 20 24
M  V30 24 2 21 25
M  V30 25 1 22 26
M  V30 26 2 24 27
M  V30 27 1 27 28
M  V30 28 2 28 29
M  V30 29 1 28 30
M  V30 30 1 30 31
M  V30 31 1 31 32
M  V30 32 1 31 33
M  V30 33 1 32 34
M  V30 34 1 33 35
M  V30 35 1 34 36
M  V30 36 1 9 12
M  V30 37 1 14 15
M  V30 38 1 20 22
M  V30 39 1 25 27
M  V30 40 1 35 36
M  V30 END BOND
M  V30 END CTAB
M  END
>  <Molecule ChEMBL ID>
CHEMBL4566395

>  <Smiles>
Cc1c(C)n(Cc2ccc(-c3ccccc3C(=O)O)cc2)c2ccc(C(=O)NC3CCNCC3)cc12

>  <IC50_nM>
41280

>  <Assay Description>
Displacement of fluormone PPAR green tracer ligand from recombinant GST-tagged PPARgamma ligand binding domain (unknown origin) incubated for 4 hrs by competitive fluorescence polarization binding assay

$$$$
CHEMBL4068424
Actelion Java MolfileCreator 2.0

  0  0  0  0  0  0              0 V3000
M  V30 BEGIN CTAB
M  V30 COUNTS 24 26 0 0 0
M  V30 BEGIN ATOM
M  V30 1 S 7.8987 0.0054 0.0 0
M  V30 2 C 8.8769 -0.2024 0.0 0
M  V30 3 C 7.7942 0.9999 0.0 0
M  V30 4 O 9.2836 -1.1159 0.0 0
M  V30 5 N 9.3769 0.6635 0.0 0
M  V30 6 C 8.7077 1.4067 0.0 0
M  V30 7 C 6.9282 1.4999 0.0 0
M  V30 8 O 8.9156 2.3848 0.0 0
M  V30 9 C 6.0621 0.9999 0.0 0
M  V30 10 C 5.1961 1.4999 0.0 0
M  V30 11 C 6.0621 0.0 0.0 0
M  V30 12 C 4.3301 0.9999 0.0 0
M  V30 13 C 5.1961 -0.5 0.0 0
M  V30 14 C 4.3301 0.0 0.0 0
M  V30 15 O 3.4641 -0.5 0.0 0
M  V30 16 C 2.598 0.0 0.0 0
M  V30 17 C 1.732 -0.5 0.0 0
M  V30 18 N 0.866 0.0 0.0 0
M  V30 19 C 0.866 1.0 0.0 0
M  V30 20 C 0.0 -0.5 0.0 0
M  V30 21 S 1.675 1.5877 0.0 0
M  V30 22 N 0.057 1.5877 0.0 0
M  V30 23 C 1.366 2.5388 0.0 0
M  V30 24 C 0.366 2.5388 0.0 0
M  V30 END ATOM
M  V30 BEGIN BOND
M  V30 1 1 1 2
M  V30 2 1 1 3
M  V30 3 2 2 4
M  V30 4 1 2 5
M  V30 5 1 3 6
M  V30 6 2 3 7
M  V30 7 2 6 8
M  V30 8 1 7 9
M  V30 9 2 9 10
M  V30 10 1 9 11
M  V30 11 1 10 12
M  V30 12 2 11 13
M  V30 13 2 12 14
M  V30 14 1 14 15
M  V30 15 1 15 16
M  V30 16 1 16 17
M  V30 17 1 17 18
M  V30 18 1 18 19
M  V30 19 1 18 20
M  V30 20 1 19 21
M  V30 21 2 19 22
M  V30 22 1 21 23
M  V30 23 1 22 24
M  V30 24 1 5 6
M  V30 25 1 13 14
M  V30 26 2 23 24
M  V30 END BOND
M  V30 END CTAB
M  END
>  <Molecule ChEMBL ID>
CHEMBL4068424

>  <Smiles>
CN(CCOc1ccc(/C=C2\SC(=O)NC2=O)cc1)c1nccs1

>  <IC50_nM>
42000

>  <Assay Description>
Transrepression activity at human PPARgamma expressed in HEK293 cells assessed as inhibition of TNFalpha induced NF-kappaB promoter activity pretreated for 4 hrs followed by TNFalpha stimulation after 3 hrs by luciferase reporter gene assay

$$$$
CHEMBL489597
Actelion Java MolfileCreator 2.0

  0  0  0  0  0  0              0 V3000
M  V30 BEGIN CTAB
M  V30 COUNTS 32 34 0 0 0
M  V30 BEGIN ATOM
M  V30 1 Cl 15.6769 -10.7755 0.0 0
M  V30 2 C 14.1851 -10.6187 0.0 0
M  V30 3 C 13.575 -9.2484 0.0 0
M  V30 4 C 13.3034 -11.8322 0.0 0
M  V30 5 C 12.0832 -9.0916 0.0 0
M  V30 6 C 14.4567 -8.0349 0.0 0
M  V30 7 C 11.8117 -11.6754 0.0 0
M  V30 8 F 11.4731 -7.7213 0.0 0
M  V30 9 C 11.2016 -10.3051 0.0 0
M  V30 10 O 15.9485 -8.1917 0.0 0
M  V30 11 N 13.8466 -6.6646 0.0 0
M  V30 12 C 14.7283 -5.451 0.0 0
M  V30 13 C 12.3548 -6.5078 0.0 0
M  V30 14 C 14.1182 -4.0807 0.0 0
M  V30 15 C 11.7447 -5.1374 0.0 0
M  V30 16 C 12.6264 -3.9239 0.0 0
M  V30 17 C 12.0163 -2.5536 0.0 0
M  V30 18 S 12.7663 -1.2546 0.0 0
M  V30 19 N 10.549 -2.2417 0.0 0
M  V30 20 C 11.7626 -0.1398 0.0 0
M  V30 21 C 10.3923 -0.75 0.0 0
M  V30 22 C 9.0932 0.0 0.0 0
M  V30 23 O 9.0932 1.5 0.0 0
M  V30 24 N 7.7942 -0.75 0.0 0
M  V30 25 C 6.4951 0.0 0.0 0 CFG=2
M  V30 26 C 5.1961 -0.75 0.0 0
M  V30 27 C 6.4951 1.5 0.0 0
M  V30 28 C 3.8971 0.0 0.0 0
M  V30 29 O 3.8971 1.5 0.0 0
M  V30 30 O 2.598 -0.75 0.0 0
M  V30 31 C 1.299 0.0 0.0 0
M  V30 32 C 0.0 -0.75 0.0 0
M  V30 END ATOM
M  V30 BEGIN BOND
M  V30 1 1 1 2
M  V30 2 2 2 3
M  V30 3 1 2 4
M  V30 4 1 3 5
M  V30 5 1 3 6
M  V30 6 2 4 7
M  V30 7 1 5 8
M  V30 8 2 5 9
M  V30 9 2 6 10
M  V30 10 1 6 11
M  V30 11 1 11 12
M  V30 12 1 11 13
M  V30 13 1 12 14
M  V30 14 1 13 15
M  V30 15 1 14 16
M  V30 16 1 16 17
M  V30 17 1 17 18
M  V30 18 2 17 19
M  V30 19 1 18 20
M  V30 20 1 19 21
M  V30 21 1 21 22
M  V30 22 2 22 23
M  V30 23 1 22 24
M  V30 24 1 24 25
M  V30 25 1 25 26
M  V30 26 1 25 27 CFG=3
M  V30 27 1 26 28
M  V30 28 2 28 29
M  V30 29 1 28 30
M  V30 30 1 30 31
M  V30 31 1 31 32
M  V30 32 1 7 9
M  V30 33 1 15 16
M  V30 34 2 20 21
M  V30 END BOND
M  V30 BEGIN COLLECTION
M  V30 MDLV30/STEABS ATOMS=(1 25)
M  V30 END COLLECTION
M  V30 END CTAB
M  END
>  <Molecule ChEMBL ID>
CHEMBL489597

>  <Smiles>
CCOC(=O)C[C@H](C)NC(=O)c1csc(C2CCN(C(=O)c3c(F)cccc3Cl)CC2)n1

>  <IC50_nM>
44000

>  <Assay Description>
Displacement of fluorescent pan PPAR agonist form GST-tagged human PPARgamma ligand binding domain by FRET assay

$$$$
CHEMBL107789
Actelion Java MolfileCreator 2.0

  0  0  0  0  0  0              0 V3000
M  V30 BEGIN CTAB
M  V30 COUNTS 29 30 0 0 0
M  V30 BEGIN ATOM
M  V30 1 F 9.8432 -1.7009 0.0 0
M  V30 2 C 9.0932 -3.0 0.0 0
M  V30 3 F 10.3923 -3.75 0.0 0
M  V30 4 F 8.3432 -4.299 0.0 0
M  V30 5 C 7.7942 -2.2499 0.0 0
M  V30 6 C 7.7942 -0.75 0.0 0
M  V30 7 C 6.4951 -2.9999 0.0 0
M  V30 8 C 6.4951 0.0 0.0 0
M  V30 9 C 5.1961 -2.25 0.0 0
M  V30 10 C 5.1961 -0.75 0.0 0
M  V30 11 C 3.8971 0.0 0.0 0
M  V30 12 N 2.598 -0.75 0.0 0
M  V30 13 C 1.299 0.0 0.0 0
M  V30 14 O 1.299 1.5 0.0 0
M  V30 15 C 0.0 -0.75 0.0 0
M  V30 16 C -1.299 0.0 0.0 0
M  V30 17 C 0.0 -2.2499 0.0 0
M  V30 18 O -1.299 1.5 0.0 0
M  V30 19 C -2.598 -0.7499 0.0 0
M  V30 20 C -1.299 -2.9999 0.0 0
M  V30 21 C -2.598 2.25 0.0 0
M  V30 22 C -2.598 -2.2499 0.0 0
M  V30 23 C -1.299 -4.4999 0.0 0
M  V30 24 C 0.0 -5.2499 0.0 0 CFG=1
M  V30 25 C 1.299 -4.5 0.0 0
M  V30 26 C 0.0 -6.75 0.0 0
M  V30 27 O 2.598 -5.25 0.0 0
M  V30 28 O 1.299 -3.0 0.0 0
M  V30 29 C 1.299 -7.5 0.0 0
M  V30 END ATOM
M  V30 BEGIN BOND
M  V30 1 1 1 2
M  V30 2 1 2 3
M  V30 3 1 2 4
M  V30 4 1 2 5
M  V30 5 2 5 6
M  V30 6 1 5 7
M  V30 7 1 6 8
M  V30 8 2 7 9
M  V30 9 2 8 10
M  V30 10 1 10 11
M  V30 11 1 11 12
M  V30 12 1 12 13
M  V30 13 2 13 14
M  V30 14 1 13 15
M  V30 15 2 15 16
M  V30 16 1 15 17
M  V30 17 1 16 18
M  V30 18 1 16 19
M  V30 19 2 17 20
M  V30 20 1 18 21
M  V30 21 2 19 22
M  V30 22 1 20 23
M  V30 23 1 24 23 CFG=1
M  V30 24 1 24 25
M  V30 25 1 24 26
M  V30 26 2 25 27
M  V30 27 1 25 28
M  V30 28 1 26 29
M  V30 29 1 9 10
M  V30 30 1 20 22
M  V30 END BOND
M  V30 BEGIN COLLECTION
M  V30 MDLV30/STEABS ATOMS=(1 24)
M  V30 END COLLECTION
M  V30 END CTAB
M  END
>  <Molecule ChEMBL ID>
CHEMBL107789

>  <Smiles>
CC[C@@H](Cc1ccc(OC)c(C(=O)NCc2ccc(C(F)(F)F)cc2)c1)C(=O)O

>  <IC50_nM>
44000

>  <Assay Description>
Binding affinity of compound to human peroxisome proliferator-activated receptor gamma was determined by competitive binding assay

$$$$
CHEMBL427520
Actelion Java MolfileCreator 2.0

  0  0  0  0  0  0              0 V3000
M  V30 BEGIN CTAB
M  V30 COUNTS 21 22 0 0 0
M  V30 BEGIN ATOM
M  V30 1 O 3.4641 -0.5 0.0 0
M  V30 2 C 2.598 0.0 0.0 0
M  V30 3 O 2.598 1.0 0.0 0
M  V30 4 C 1.732 -0.5 0.0 0 CFG=2
M  V30 5 O 0.866 0.0 0.0 0
M  V30 6 C 1.732 -1.5 0.0 0
M  V30 7 C 0.0 -0.5 0.0 0
M  V30 8 C 0.866 -1.9999 0.0 0
M  V30 9 C 2.598 -2.0 0.0 0
M  V30 10 C -0.866 0.0 0.0 0
M  V30 11 C 0.0 -1.4999 0.0 0
M  V30 12 C 0.866 -2.9999 0.0 0
M  V30 13 C 2.598 -3.0 0.0 0
M  V30 14 C -1.732 -0.4999 0.0 0
M  V30 15 C -0.866 -1.9999 0.0 0
M  V30 16 C 1.732 -3.5 0.0 0
M  V30 17 C -1.732 -1.4999 0.0 0
M  V30 18 C -2.598 -1.9999 0.0 0
M  V30 19 O -2.598 -2.9999 0.0 0
M  V30 20 C -3.4641 -1.4999 0.0 0
M  V30 21 C -4.3301 -1.9999 0.0 0
M  V30 END ATOM
M  V30 BEGIN BOND
M  V30 1 2 1 2
M  V30 2 1 2 3
M  V30 3 1 2 4
M  V30 4 1 4 5 CFG=1
M  V30 5 1 4 6
M  V30 6 1 5 7
M  V30 7 2 6 8
M  V30 8 1 6 9
M  V30 9 2 7 10
M  V30 10 1 7 11
M  V30 11 1 8 12
M  V30 12 2 9 13
M  V30 13 1 10 14
M  V30 14 2 11 15
M  V30 15 2 12 16
M  V30 16 2 14 17
M  V30 17 1 17 18
M  V30 18 2 18 19
M  V30 19 1 18 20
M  V30 20 1 20 21
M  V30 21 1 13 16
M  V30 22 1 15 17
M  V30 END BOND
M  V30 BEGIN COLLECTION
M  V30 MDLV30/STERAC1 ATOMS=(1 4)
M  V30 END COLLECTION
M  V30 END CTAB
M  END
>  <Molecule ChEMBL ID>
CHEMBL427520

>  <Smiles>
CCC(=O)c1ccc(OC(C(=O)O)c2ccccc2)cc1

>  <IC50_nM>
50000

>  <Assay Description>
In vitro binding affinity for human PPAR gamma

$$$$
CHEMBL366220
Actelion Java MolfileCreator 2.0

  0  0  0  0  0  0              0 V3000
M  V30 BEGIN CTAB
M  V30 COUNTS 23 24 0 0 0
M  V30 BEGIN ATOM
M  V30 1 Cl 4.3301 0.9999 0.0 0
M  V30 2 C 4.3301 0.0 0.0 0
M  V30 3 C 3.4641 -0.5 0.0 0
M  V30 4 C 5.1961 -0.5 0.0 0
M  V30 5 O 2.598 0.0 0.0 0
M  V30 6 C 3.4641 -1.5 0.0 0
M  V30 7 C 5.1961 -1.5 0.0 0
M  V30 8 C 1.732 -0.5 0.0 0 CFG=2
M  V30 9 Cl 2.7131 -1.8445 0.0 0
M  V30 10 C 4.3301 -2.0 0.0 0
M  V30 11 C 6.0621 -2.0 0.0 0
M  V30 12 C 0.866 0.0 0.0 0
M  V30 13 C 1.732 -1.5 0.0 0
M  V30 14 O 6.9282 -1.5 0.0 0
M  V30 15 C 6.0621 -3.0 0.0 0
M  V30 16 C 0.0 -0.5 0.0 0
M  V30 17 C 0.866 0.9999 0.0 0
M  V30 18 O 2.7098 -2.2236 0.0 0
M  V30 19 O 0.866 -2.0 0.0 0
M  V30 20 C 6.9282 -3.5 0.0 0
M  V30 21 C -0.866 0.0 0.0 0
M  V30 22 C 0.0 1.4999 0.0 0
M  V30 23 C -0.866 0.9999 0.0 0
M  V30 END ATOM
M  V30 BEGIN BOND
M  V30 1 1 1 2
M  V30 2 2 2 3
M  V30 3 1 2 4
M  V30 4 1 3 5
M  V30 5 1 3 6
M  V30 6 2 4 7
M  V30 7 1 8 5 CFG=1
M  V30 8 1 6 9
M  V30 9 2 6 10
M  V30 10 1 7 11
M  V30 11 1 8 12
M  V30 12 1 8 13
M  V30 13 2 11 14
M  V30 14 1 11 15
M  V30 15 2 12 16
M  V30 16 1 12 17
M  V30 17 2 13 18
M  V30 18 1 13 19
M  V30 19 1 15 20
M  V30 20 1 16 21
M  V30 21 2 17 22
M  V30 22 2 21 23
M  V30 23 1 7 10
M  V30 24 1 22 23
M  V30 END BOND
M  V30 BEGIN COLLECTION
M  V30 MDLV30/STERAC1 ATOMS=(1 8)
M  V30 END COLLECTION
M  V30 END CTAB
M  END
>  <Molecule ChEMBL ID>
CHEMBL366220

>  <Smiles>
CCC(=O)c1cc(Cl)c(OC(C(=O)O)c2ccccc2)c(Cl)c1

>  <IC50_nM>
50000

>  <Assay Description>
In vitro binding affinity for human PPAR gamma

$$$$
CHEMBL191489
Actelion Java MolfileCreator 2.0

  0  0  0  0  0  0              0 V3000
M  V30 BEGIN CTAB
M  V30 COUNTS 32 34 0 0 0
M  V30 BEGIN ATOM
M  V30 1 Cl 3.4641 1.4999 0.0 0
M  V30 2 C 4.3301 1.0 0.0 0
M  V30 3 C 4.3301 0.0 0.0 0
M  V30 4 C 5.1961 1.5 0.0 0
M  V30 5 O 3.4641 -0.5 0.0 0
M  V30 6 C 5.1961 -0.4999 0.0 0
M  V30 7 C 6.0621 1.0 0.0 0
M  V30 8 C 2.598 0.0 0.0 0
M  V30 9 C 6.0621 0.0 0.0 0
M  V30 10 O 6.9282 1.5 0.0 0
M  V30 11 C 1.732 -0.5 0.0 0
M  V30 12 C 6.9282 2.5 0.0 0
M  V30 13 O 0.866 0.0 0.0 0
M  V30 14 F 5.9282 2.5 0.0 0
M  V30 15 F 6.9282 3.5 0.0 0
M  V30 16 F 7.9282 2.5 0.0 0
M  V30 17 C 0.0 -0.5 0.0 0
M  V30 18 C 0.0 -1.4999 0.0 0
M  V30 19 C -0.866 0.0 0.0 0
M  V30 20 C -0.866 -1.9999 0.0 0
M  V30 21 C -1.732 -0.4999 0.0 0
M  V30 22 C -1.732 -1.4999 0.0 0
M  V30 23 C -1.0739 -2.9781 0.0 0
M  V30 24 O -2.4751 -2.1691 0.0 0
M  V30 25 C -2.0684 -3.0826 0.0 0 CFG=2
M  V30 26 C -2.5684 -3.9487 0.0 0
M  V30 27 C -3.067 -3.0303 0.0 0
M  V30 28 O -2.0684 -4.8147 0.0 0
M  V30 29 O -3.59 -3.9448 0.0 0
M  V30 30 C -3.1202 -4.2377 0.0 0
M  V30 31 C -4.0657 -2.978 0.0 0
M  V30 32 C -3.0147 -2.0317 0.0 0
M  V30 END ATOM
M  V30 BEGIN BOND
M  V30 1 1 1 2
M  V30 2 2 2 3
M  V30 3 1 2 4
M  V30 4 1 3 5
M  V30 5 1 3 6
M  V30 6 2 4 7
M  V30 7 1 5 8
M  V30 8 2 6 9
M  V30 9 1 7 10
M  V30 10 1 8 11
M  V30 11 1 10 12
M  V30 12 1 11 13
M  V30 13 1 12 14
M  V30 14 1 12 15
M  V30 15 1 12 16
M  V30 16 1 13 17
M  V30 17 2 17 18
M  V30 18 1 17 19
M  V30 19 1 18 20
M  V30 20 2 19 21
M  V30 21 2 20 22
M  V30 22 1 20 23
M  V30 23 1 22 24
M  V30 24 1 23 25
M  V30 25 1 25 26 CFG=1
M  V30 26 1 25 27
M  V30 27 2 26 28
M  V30 28 1 26 29
M  V30 29 1 27 30
M  V30 30 1 27 31
M  V30 31 1 27 32
M  V30 32 1 7 9
M  V30 33 1 21 22
M  V30 34 1 24 25
M  V30 END BOND
M  V30 BEGIN COLLECTION
M  V30 MDLV30/STEABS ATOMS=(1 25)
M  V30 END COLLECTION
M  V30 END CTAB
M  END
>  <Molecule ChEMBL ID>
CHEMBL191489

>  <Smiles>
CC(C)(C)[C@@]1(C(=O)O)Cc2cc(OCCOc3ccc(OC(F)(F)F)cc3Cl)ccc2O1

>  <IC50_nM>
50000

>  <Assay Description>
In vitro binding affinity for PPAR-gamma

$$$$
CHEMBL371112
Actelion Java MolfileCreator 2.0

  0  0  0  0  0  0              0 V3000
M  V30 BEGIN CTAB
M  V30 COUNTS 29 30 0 0 0
M  V30 BEGIN ATOM
M  V30 1 O 3.9368 -3.0305 0.0 0
M  V30 2 C 2.6805 -2.0709 0.0 0
M  V30 3 O 1.453 -2.7598 0.0 0
M  V30 4 C 2.6245 -0.7576 0.0 0
M  V30 5 O 1.3122 0.0 0.0 0
M  V30 6 C 3.9368 0.0 0.0 0
M  V30 7 C 0.0 -0.7576 0.0 0
M  V30 8 C 3.9368 1.5152 0.0 0
M  V30 9 C 5.2491 -0.7576 0.0 0
M  V30 10 C -1.3122 0.0 0.0 0
M  V30 11 C 0.0 -2.2729 0.0 0
M  V30 12 C 5.2491 2.2729 0.0 0
M  V30 13 C 6.5614 0.0 0.0 0
M  V30 14 C -2.6245 -0.7576 0.0 0
M  V30 15 C -1.3122 1.5152 0.0 0
M  V30 16 C -1.3122 -3.0305 0.0 0
M  V30 17 C 1.2079 -3.2313 0.0 0
M  V30 18 C 6.5614 1.5152 0.0 0
M  V30 19 C -2.6245 -2.2729 0.0 0
M  V30 20 C 0.0 2.2729 0.0 0
M  V30 21 C -2.6245 2.2729 0.0 0
M  V30 22 C 1.3122 -4.5458 0.0 0
M  V30 23 C 2.5342 -2.5991 0.0 0
M  V30 24 C -3.9368 -3.0305 0.0 0
M  V30 25 C 0.0 3.7882 0.0 0
M  V30 26 C 0.0 -5.3035 0.0 0
M  V30 27 O -3.9368 -4.5458 0.0 0
M  V30 28 C -5.2491 -2.2729 0.0 0
M  V30 29 C -6.5614 -3.0305 0.0 0
M  V30 END ATOM
M  V30 BEGIN BOND
M  V30 1 2 1 2
M  V30 2 1 2 3
M  V30 3 1 2 4
M  V30 4 1 4 5
M  V30 5 1 4 6
M  V30 6 1 5 7
M  V30 7 2 6 8
M  V30 8 1 6 9
M  V30 9 2 7 10
M  V30 10 1 7 11
M  V30 11 1 8 12
M  V30 12 2 9 13
M  V30 13 1 10 14
M  V30 14 1 10 15
M  V30 15 2 11 16
M  V30 16 1 11 17
M  V30 17 2 12 18
M  V30 18 2 14 19
M  V30 19 1 15 20
M  V30 20 1 15 21
M  V30 21 1 17 22
M  V30 22 1 17 23
M  V30 23 1 19 24
M  V30 24 1 20 25
M  V30 25 1 22 26
M  V30 26 2 24 27
M  V30 27 1 24 28
M  V30 28 1 28 29
M  V30 29 1 13 18
M  V30 30 1 16 19
M  V30 END BOND
M  V30 END CTAB
M  END
>  <Molecule ChEMBL ID>
CHEMBL371112

>  <Smiles>
CCC(=O)c1cc(C(C)CC)c(OC(C(=O)O)c2ccccc2)c(C(C)CC)c1

>  <IC50_nM>
50000

>  <Assay Description>
In vitro binding affinity for human PPAR gamma

$$$$
CHEMBL189950
Actelion Java MolfileCreator 2.0

  0  0  0  0  0  0              0 V3000
M  V30 BEGIN CTAB
M  V30 COUNTS 23 24 0 0 0
M  V30 BEGIN ATOM
M  V30 1 O 5.2347 -0.7555 0.0 0
M  V30 2 C 3.926 0.0 0.0 0
M  V30 3 O 3.926 1.5111 0.0 0
M  V30 4 C 2.6173 -0.7555 0.0 0 CFG=2
M  V30 5 O 1.3086 0.0 0.0 0
M  V30 6 C 2.6173 -2.2666 0.0 0
M  V30 7 C 0.0 -0.7555 0.0 0
M  V30 8 C 1.4784 -2.938 0.0 0
M  V30 9 C 3.926 -3.0222 0.0 0
M  V30 10 C -1.3086 0.0 0.0 0
M  V30 11 C 0.0 -2.2666 0.0 0
M  V30 12 C 1.3086 -4.5333 0.0 0
M  V30 13 C 3.926 -4.5333 0.0 0
M  V30 14 C -2.6173 -0.7555 0.0 0
M  V30 15 C -1.3086 1.5111 0.0 0
M  V30 16 C -1.3086 -3.0222 0.0 0
M  V30 17 C 0.9713 -3.1895 0.0 0
M  V30 18 C 2.6173 -5.2889 0.0 0
M  V30 19 C -2.6173 -2.2666 0.0 0
M  V30 20 C -3.926 -3.0222 0.0 0
M  V30 21 O -3.926 -4.5333 0.0 0
M  V30 22 C -5.2347 -2.2666 0.0 0
M  V30 23 C -6.5433 -3.0222 0.0 0
M  V30 END ATOM
M  V30 BEGIN BOND
M  V30 1 2 1 2
M  V30 2 1 2 3
M  V30 3 1 2 4
M  V30 4 1 4 5 CFG=1
M  V30 5 1 4 6
M  V30 6 1 5 7
M  V30 7 2 6 8
M  V30 8 1 6 9
M  V30 9 2 7 10
M  V30 10 1 7 11
M  V30 11 1 8 12
M  V30 12 2 9 13
M  V30 13 1 10 14
M  V30 14 1 10 15
M  V30 15 2 11 16
M  V30 16 1 11 17
M  V30 17 2 12 18
M  V30 18 2 14 19
M  V30 19 1 19 20
M  V30 20 2 20 21
M  V30 21 1 20 22
M  V30 22 1 22 23
M  V30 23 1 13 18
M  V30 24 1 16 19
M  V30 END BOND
M  V30 BEGIN COLLECTION
M  V30 MDLV30/STERAC1 ATOMS=(1 4)
M  V30 END COLLECTION
M  V30 END CTAB
M  END
>  <Molecule ChEMBL ID>
CHEMBL189950

>  <Smiles>
CCC(=O)c1cc(C)c(OC(C(=O)O)c2ccccc2)c(C)c1

>  <IC50_nM>
50000

>  <Assay Description>
In vitro binding affinity for human PPAR gamma

$$$$
CHEMBL5201597
Actelion Java MolfileCreator 2.0

  0  0  0  0  0  0              0 V3000
M  V30 BEGIN CTAB
M  V30 COUNTS 30 33 0 0 0
M  V30 BEGIN ATOM
M  V30 1 Cl 3.4641 -1.4999 0.0 0
M  V30 2 C 3.4641 -0.4999 0.0 0
M  V30 3 C 4.3301 0.0 0.0 0
M  V30 4 C 2.598 0.0 0.0 0
M  V30 5 N 5.1961 -0.5 0.0 0 CHG=1
M  V30 6 C 4.3301 1.0 0.0 0
M  V30 7 C 1.732 -0.5 0.0 0
M  V30 8 C 2.598 1.0 0.0 0
M  V30 9 O 5.1961 -1.5 0.0 0
M  V30 10 O 6.0621 0.0 0.0 0 CHG=-1
M  V30 11 C 3.4641 1.5 0.0 0
M  V30 12 O 1.732 -1.5 0.0 0
M  V30 13 N 0.866 0.0 0.0 0
M  V30 14 C 0.0 -0.5 0.0 0
M  V30 15 C -0.866 0.0 0.0 0
M  V30 16 C 0.0 -1.5 0.0 0
M  V30 17 C -1.732 -0.4999 0.0 0
M  V30 18 C -0.866 -1.9999 0.0 0
M  V30 19 N -2.6831 -0.1909 0.0 0
M  V30 20 C -1.732 -1.4999 0.0 0
M  V30 21 C -3.2708 -0.9999 0.0 0
M  V30 22 O -2.6831 -1.809 0.0 0
M  V30 23 C -4.2708 -0.9999 0.0 0
M  V30 24 C -4.7708 -0.1339 0.0 0
M  V30 25 C -4.7708 -1.866 0.0 0
M  V30 26 C -5.7708 -0.1339 0.0 0
M  V30 27 C -5.7708 -1.866 0.0 0
M  V30 28 C -6.2708 -0.9999 0.0 0
M  V30 29 C -7.2708 -0.9999 0.0 0
M  V30 30 C -7.7708 -1.866 0.0 0
M  V30 END ATOM
M  V30 BEGIN BOND
M  V30 1 1 1 2
M  V30 2 2 2 3
M  V30 3 1 2 4
M  V30 4 1 3 5
M  V30 5 1 3 6
M  V30 6 1 4 7
M  V30 7 2 4 8
M  V30 8 2 5 9
M  V30 9 1 5 10
M  V30 10 2 6 11
M  V30 11 2 7 12
M  V30 12 1 7 13
M  V30 13 1 13 14
M  V30 14 2 14 15
M  V30 15 1 14 16
M  V30 16 1 15 17
M  V30 17 2 16 18
M  V30 18 1 17 19
M  V30 19 2 17 20
M  V30 20 2 19 21
M  V30 21 1 20 22
M  V30 22 1 21 23
M  V30 23 2 23 24
M  V30 24 1 23 25
M  V30 25 1 24 26
M  V30 26 2 25 27
M  V30 27 2 26 28
M  V30 28 1 28 29
M  V30 29 1 29 30
M  V30 30 1 8 11
M  V30 31 1 18 20
M  V30 32 1 21 22
M  V30 33 1 27 28
M  V30 END BOND
M  V30 END CTAB
M  END
>  <Molecule ChEMBL ID>
CHEMBL5201597

>  <Smiles>
CCc1ccc(-c2nc3cc(NC(=O)c4cccc([N+](=O)[O-])c4Cl)ccc3o2)cc1

>  <IC50_nM>
50000

>  <Assay Description>
Inverse agonist activity at PPARgamma in human RT112/84-FABP4 cells assessed as reduction in PPARgamma transactivation measured by Nanoluciferase reporter gene assay

$$$$
CHEMBL363006
Actelion Java MolfileCreator 2.0

  0  0  0  0  0  0              0 V3000
M  V30 BEGIN CTAB
M  V30 COUNTS 31 33 0 0 0
M  V30 BEGIN ATOM
M  V30 1 Cl 5.2158 2.2585 0.0 0
M  V30 2 C 6.5197 1.5056 0.0 0
M  V30 3 C 6.5197 0.0 0.0 0
M  V30 4 C 7.8237 2.2585 0.0 0
M  V30 5 O 5.2158 -0.7528 0.0 0
M  V30 6 C 7.8237 -0.7528 0.0 0
M  V30 7 C 9.1277 1.5056 0.0 0
M  V30 8 C 3.9118 0.0 0.0 0
M  V30 9 C 9.1277 0.0 0.0 0
M  V30 10 O 10.4316 2.2585 0.0 0
M  V30 11 C 2.6079 -0.7528 0.0 0
M  V30 12 C 10.4316 3.7642 0.0 0
M  V30 13 O 1.3039 0.0 0.0 0
M  V30 14 F 8.9259 3.7642 0.0 0
M  V30 15 F 10.4316 5.2698 0.0 0
M  V30 16 F 11.9373 3.7642 0.0 0
M  V30 17 C 0.0 -0.7528 0.0 0
M  V30 18 C 0.0 -2.2585 0.0 0
M  V30 19 C -1.3039 0.0 0.0 0
M  V30 20 C -1.3039 -3.0113 0.0 0
M  V30 21 C -2.6079 -0.7528 0.0 0
M  V30 22 C -2.6079 -2.2585 0.0 0
M  V30 23 C -1.617 -4.4841 0.0 0
M  V30 24 O -3.7268 -3.266 0.0 0
M  V30 25 C -3.1144 -4.6415 0.0 0 CFG=2
M  V30 26 C -3.8672 -5.9454 0.0 0
M  V30 27 C -4.618 -4.5627 0.0 0
M  V30 28 O -3.1144 -7.2494 0.0 0
M  V30 29 O -5.2259 -6.2162 0.0 0
M  V30 30 C -5.5116 -5.69 0.0 0
M  V30 31 C -5.3016 -3.2211 0.0 0
M  V30 END ATOM
M  V30 BEGIN BOND
M  V30 1 1 1 2
M  V30 2 2 2 3
M  V30 3 1 2 4
M  V30 4 1 3 5
M  V30 5 1 3 6
M  V30 6 2 4 7
M  V30 7 1 5 8
M  V30 8 2 6 9
M  V30 9 1 7 10
M  V30 10 1 8 11
M  V30 11 1 10 12
M  V30 12 1 11 13
M  V30 13 1 12 14
M  V30 14 1 12 15
M  V30 15 1 12 16
M  V30 16 1 13 17
M  V30 17 2 17 18
M  V30 18 1 17 19
M  V30 19 1 18 20
M  V30 20 2 19 21
M  V30 21 2 20 22
M  V30 22 1 20 23
M  V30 23 1 22 24
M  V30 24 1 23 25
M  V30 25 1 25 26 CFG=1
M  V30 26 1 25 27
M  V30 27 2 26 28
M  V30 28 1 26 29
M  V30 29 1 27 30
M  V30 30 1 27 31
M  V30 31 1 7 9
M  V30 32 1 21 22
M  V30 33 1 24 25
M  V30 END BOND
M  V30 BEGIN COLLECTION
M  V30 MDLV30/STEABS ATOMS=(1 25)
M  V30 END COLLECTION
M  V30 END CTAB
M  END
>  <Molecule ChEMBL ID>
CHEMBL363006

>  <Smiles>
CC(C)[C@@]1(C(=O)O)Cc2cc(OCCOc3ccc(OC(F)(F)F)cc3Cl)ccc2O1

>  <IC50_nM>
50000

>  <Assay Description>
In vitro binding affinity for PPAR-gamma

$$$$
CHEMBL4444484
Actelion Java MolfileCreator 2.0

  0  0  0  0  0  0              0 V3000
M  V30 BEGIN CTAB
M  V30 COUNTS 34 37 0 0 0
M  V30 BEGIN ATOM
M  V30 1 Cl 3.1127 -2.6801 0.0 0
M  V30 2 C 4.4745 -3.0879 0.0 0
M  V30 3 C 5.5918 -2.0819 0.0 0
M  V30 4 C 4.7871 -4.5584 0.0 0
M  V30 5 C 7.0215 -2.5465 0.0 0
M  V30 6 C 5.2792 -0.6114 0.0 0
M  V30 7 C 6.2169 -5.023 0.0 0
M  V30 8 C 7.3341 -4.017 0.0 0
M  V30 9 C 8.1388 -1.5406 0.0 0
M  V30 10 N 6.2851 0.5057 0.0 0
M  V30 11 C 3.9058 0.0 0.0 0
M  V30 12 F 9.1447 -2.6578 0.0 0
M  V30 13 F 9.256 -0.5346 0.0 0
M  V30 14 F 7.1328 -0.4233 0.0 0
M  V30 15 O 5.5335 1.8076 0.0 0
M  V30 16 C 4.063 1.4951 0.0 0
M  V30 17 C 2.6039 -0.7516 0.0 0
M  V30 18 C 2.9457 2.501 0.0 0
M  V30 19 O 1.3019 0.0 0.0 0
M  V30 20 N 2.5699 -2.2266 0.0 0
M  V30 21 C 3.2583 3.9715 0.0 0
M  V30 22 C 1.5159 2.0365 0.0 0
M  V30 23 C 1.3019 -3.0067 0.0 0
M  V30 24 C 2.1411 4.9775 0.0 0
M  V30 25 C 0.3987 3.0424 0.0 0
M  V30 26 C 1.3019 -4.51 0.0 0
M  V30 27 C 0.0 -2.255 0.0 0
M  V30 28 C 0.7113 4.5129 0.0 0
M  V30 29 C 0.0 -5.2617 0.0 0
M  V30 30 C -1.3019 -3.0067 0.0 0
M  V30 31 C -1.3019 -4.51 0.0 0
M  V30 32 C -2.6039 -5.2617 0.0 0
M  V30 33 O -2.6039 -6.7651 0.0 0
M  V30 34 O -3.9058 -4.51 0.0 0
M  V30 END ATOM
M  V30 BEGIN BOND
M  V30 1 1 1 2
M  V30 2 2 2 3
M  V30 3 1 2 4
M  V30 4 1 3 5
M  V30 5 1 3 6
M  V30 6 2 4 7
M  V30 7 2 5 8
M  V30 8 1 5 9
M  V30 9 2 6 10
M  V30 10 1 6 11
M  V30 11 1 9 12
M  V30 12 1 9 13
M  V30 13 1 9 14
M  V30 14 1 10 15
M  V30 15 2 11 16
M  V30 16 1 11 17
M  V30 17 1 16 18
M  V30 18 2 17 19
M  V30 19 1 17 20
M  V30 20 2 18 21
M  V30 21 1 18 22
M  V30 22 1 20 23
M  V30 23 1 21 24
M  V30 24 2 22 25
M  V30 25 2 23 26
M  V30 26 1 23 27
M  V30 27 2 24 28
M  V30 28 1 26 29
M  V30 29 2 27 30
M  V30 30 2 29 31
M  V30 31 1 31 32
M  V30 32 2 32 33
M  V30 33 1 32 34
M  V30 34 1 7 8
M  V30 35 1 15 16
M  V30 36 1 25 28
M  V30 37 1 30 31
M  V30 END BOND
M  V30 END CTAB
M  END
>  <Molecule ChEMBL ID>
CHEMBL4444484

>  <Smiles>
O=C(O)c1ccc(NC(=O)c2c(-c3c(Cl)cccc3C(F)(F)F)noc2-c2ccccc2)cc1

>  <IC50_nM>
50000

>  <Assay Description>
Inverse agonist activity at His6-tagged PPARgamma LBD (unknown origin) assessed as inhibition of rosiglitazone-induced N-terminal biotinylated co-activator SRC1 box2 peptide recruitment measured after 30 mins by TR-FRET assay

$$$$
CHEMBL4574983
Actelion Java MolfileCreator 2.0

  0  0  0  0  0  0              0 V3000
M  V30 BEGIN CTAB
M  V30 COUNTS 35 38 0 0 0
M  V30 BEGIN ATOM
M  V30 1 Cl 3.1126 -2.68 0.0 0
M  V30 2 C 4.4743 -3.0877 0.0 0
M  V30 3 C 5.5914 -2.0818 0.0 0
M  V30 4 C 4.7868 -4.5581 0.0 0
M  V30 5 C 7.0211 -2.5464 0.0 0
M  V30 6 C 5.2789 -0.6114 0.0 0
M  V30 7 C 6.2165 -5.0227 0.0 0
M  V30 8 C 7.3337 -4.0168 0.0 0
M  V30 9 C 8.1383 -1.5405 0.0 0
M  V30 10 N 6.2848 0.5057 0.0 0
M  V30 11 C 3.9056 0.0 0.0 0
M  V30 12 F 9.1442 -2.6576 0.0 0
M  V30 13 F 9.2554 -0.5346 0.0 0
M  V30 14 F 7.1324 -0.4233 0.0 0
M  V30 15 O 5.5331 1.8075 0.0 0
M  V30 16 C 4.0627 1.495 0.0 0
M  V30 17 C 2.6037 -0.7516 0.0 0
M  V30 18 C 2.9456 2.5009 0.0 0
M  V30 19 O 1.3018 0.0 0.0 0
M  V30 20 N 2.5697 -2.2265 0.0 0
M  V30 21 C 3.2581 3.9713 0.0 0
M  V30 22 C 1.5159 2.0363 0.0 0
M  V30 23 C 1.3018 -3.0065 0.0 0
M  V30 24 C 2.141 4.9772 0.0 0
M  V30 25 C 0.3987 3.0422 0.0 0
M  V30 26 C 1.3018 -4.5098 0.0 0
M  V30 27 C 0.0 -2.2549 0.0 0
M  V30 28 C 0.7113 4.5127 0.0 0
M  V30 29 C 0.0 -5.2614 0.0 0
M  V30 30 C -1.3018 -3.0065 0.0 0
M  V30 31 C -1.3018 -4.5098 0.0 0
M  V30 32 C -2.6037 -5.2614 0.0 0
M  V30 33 C -2.6037 -6.7647 0.0 0
M  V30 34 O -1.3018 -7.5163 0.0 0
M  V30 35 O -3.9056 -7.5163 0.0 0
M  V30 END ATOM
M  V30 BEGIN BOND
M  V30 1 1 1 2
M  V30 2 2 2 3
M  V30 3 1 2 4
M  V30 4 1 3 5
M  V30 5 1 3 6
M  V30 6 2 4 7
M  V30 7 2 5 8
M  V30 8 1 5 9
M  V30 9 2 6 10
M  V30 10 1 6 11
M  V30 11 1 9 12
M  V30 12 1 9 13
M  V30 13 1 9 14
M  V30 14 1 10 15
M  V30 15 2 11 16
M  V30 16 1 11 17
M  V30 17 1 16 18
M  V30 18 2 17 19
M  V30 19 1 17 20
M  V30 20 2 18 21
M  V30 21 1 18 22
M  V30 22 1 20 23
M  V30 23 1 21 24
M  V30 24 2 22 25
M  V30 25 2 23 26
M  V30 26 1 23 27
M  V30 27 2 24 28
M  V30 28 1 26 29
M  V30 29 2 27 30
M  V30 30 2 29 31
M  V30 31 1 31 32
M  V30 32 1 32 33
M  V30 33 2 33 34
M  V30 34 1 33 35
M  V30 35 1 7 8
M  V30 36 1 15 16
M  V30 37 1 25 28
M  V30 38 1 30 31
M  V30 END BOND
M  V30 END CTAB
M  END
>  <Molecule ChEMBL ID>
CHEMBL4574983

>  <Smiles>
O=C(O)Cc1ccc(NC(=O)c2c(-c3c(Cl)cccc3C(F)(F)F)noc2-c2ccccc2)cc1

>  <IC50_nM>
50000

>  <Assay Description>
Inverse agonist activity at His6-tagged PPARgamma LBD (unknown origin) assessed as inhibition of rosiglitazone-induced N-terminal biotinylated co-activator SRC1 box2 peptide recruitment measured after 30 mins by TR-FRET assay

$$$$
CHEMBL4457177
Actelion Java MolfileCreator 2.0

  0  0  0  0  0  0              0 V3000
M  V30 BEGIN CTAB
M  V30 COUNTS 34 37 0 0 0
M  V30 BEGIN ATOM
M  V30 1 Cl 3.0448 -2.6233 0.0 0
M  V30 2 C 4.4745 -3.0879 0.0 0
M  V30 3 C 5.5918 -2.0819 0.0 0
M  V30 4 C 4.7871 -4.5584 0.0 0
M  V30 5 C 7.0215 -2.5465 0.0 0
M  V30 6 C 5.2792 -0.6114 0.0 0
M  V30 7 C 6.2169 -5.023 0.0 0
M  V30 8 C 7.3341 -4.017 0.0 0
M  V30 9 C 8.1388 -1.5406 0.0 0
M  V30 10 N 6.2851 0.5057 0.0 0
M  V30 11 C 3.9058 0.0 0.0 0
M  V30 12 F 9.1447 -2.6578 0.0 0
M  V30 13 F 9.256 -0.5346 0.0 0
M  V30 14 F 7.1328 -0.4233 0.0 0
M  V30 15 O 5.5335 1.8076 0.0 0
M  V30 16 N 2.6039 -0.7516 0.0 0
M  V30 17 C 4.063 1.4951 0.0 0
M  V30 18 C 1.3019 0.0 0.0 0
M  V30 19 C 2.9457 2.501 0.0 0
M  V30 20 O 1.2689 1.4211 0.0 0
M  V30 21 C 0.0 -0.7516 0.0 0
M  V30 22 C 3.2583 3.9715 0.0 0
M  V30 23 C 1.5325 2.0776 0.0 0
M  V30 24 C -1.3019 0.0 0.0 0
M  V30 25 C 0.0 -2.255 0.0 0
M  V30 26 C 2.1411 4.9775 0.0 0
M  V30 27 C 0.3987 3.0424 0.0 0
M  V30 28 C -2.6039 -0.7516 0.0 0
M  V30 29 C -1.3019 -3.0067 0.0 0
M  V30 30 C 0.7113 4.5129 0.0 0
M  V30 31 C -2.6039 -2.255 0.0 0
M  V30 32 C -3.9058 -3.0067 0.0 0
M  V30 33 O -5.2078 -2.255 0.0 0
M  V30 34 O -3.9058 -4.51 0.0 0
M  V30 END ATOM
M  V30 BEGIN BOND
M  V30 1 1 1 2
M  V30 2 2 2 3
M  V30 3 1 2 4
M  V30 4 1 3 5
M  V30 5 1 3 6
M  V30 6 2 4 7
M  V30 7 2 5 8
M  V30 8 1 5 9
M  V30 9 2 6 10
M  V30 10 1 6 11
M  V30 11 1 9 12
M  V30 12 1 9 13
M  V30 13 1 9 14
M  V30 14 1 10 15
M  V30 15 1 11 16
M  V30 16 2 11 17
M  V30 17 1 16 18
M  V30 18 1 17 19
M  V30 19 2 18 20
M  V30 20 1 18 21
M  V30 21 2 19 22
M  V30 22 1 19 23
M  V30 23 2 21 24
M  V30 24 1 21 25
M  V30 25 1 22 26
M  V30 26 2 23 27
M  V30 27 1 24 28
M  V30 28 2 25 29
M  V30 29 2 26 30
M  V30 30 2 28 31
M  V30 31 1 31 32
M  V30 32 2 32 33
M  V30 33 1 32 34
M  V30 34 1 7 8
M  V30 35 1 15 17
M  V30 36 1 27 30
M  V30 37 1 29 31
M  V30 END BOND
M  V30 END CTAB
M  END
>  <Molecule ChEMBL ID>
CHEMBL4457177

>  <Smiles>
O=C(O)c1ccc(C(=O)Nc2c(-c3c(Cl)cccc3C(F)(F)F)noc2-c2ccccc2)cc1

>  <IC50_nM>
50000

>  <Assay Description>
Inverse agonist activity at His6-tagged PPARgamma LBD (unknown origin) assessed as inhibition of rosiglitazone-induced N-terminal biotinylated co-activator SRC1 box2 peptide recruitment measured after 30 mins by TR-FRET assay

$$$$
CHEMBL371832
Actelion Java MolfileCreator 2.0

  0  0  0  0  0  0              0 V3000
M  V30 BEGIN CTAB
M  V30 COUNTS 30 31 0 0 0
M  V30 BEGIN ATOM
M  V30 1 O 3.9425 -3.035 0.0 0
M  V30 2 C 2.6283 -2.2762 0.0 0
M  V30 3 O 1.6104 -2.798 0.0 0
M  V30 4 C 2.6283 -0.7587 0.0 0 CFG=1
M  V30 5 C 3.9425 0.0 0.0 0
M  V30 6 C 1.3141 0.0 0.0 0
M  V30 7 C 3.9425 1.5175 0.0 0
M  V30 8 C 5.2567 -0.7587 0.0 0
M  V30 9 C 0.0 -0.7587 0.0 0
M  V30 10 C 5.2567 2.2762 0.0 0
M  V30 11 C 6.5709 0.0 0.0 0
M  V30 12 C -1.3141 0.0 0.0 0
M  V30 13 C 0.0 -2.2762 0.0 0
M  V30 14 C 6.5709 1.5175 0.0 0
M  V30 15 C -2.6283 -0.7587 0.0 0
M  V30 16 C -1.3141 1.5175 0.0 0
M  V30 17 C -1.3141 -3.035 0.0 0
M  V30 18 C 1.166 -3.1535 0.0 0
M  V30 19 C 7.8851 2.2762 0.0 0
M  V30 20 C -2.6283 -2.2762 0.0 0
M  V30 21 C 0.0 2.2762 0.0 0
M  V30 22 C 1.3141 -4.5525 0.0 0
M  V30 23 C 7.8851 3.7937 0.0 0
M  V30 24 C 9.1993 1.5175 0.0 0
M  V30 25 C -3.9425 -3.035 0.0 0
M  V30 26 C 0.0 3.7937 0.0 0
M  V30 27 C 0.0 -5.3112 0.0 0
M  V30 28 O -3.9425 -4.5525 0.0 0
M  V30 29 C -5.2567 -2.2762 0.0 0
M  V30 30 C -6.5709 -3.035 0.0 0
M  V30 END ATOM
M  V30 BEGIN BOND
M  V30 1 2 1 2
M  V30 2 1 2 3
M  V30 3 1 2 4
M  V30 4 1 4 5
M  V30 5 1 4 6 CFG=3
M  V30 6 2 5 7
M  V30 7 1 5 8
M  V30 8 1 6 9
M  V30 9 1 7 10
M  V30 10 2 8 11
M  V30 11 2 9 12
M  V30 12 1 9 13
M  V30 13 2 10 14
M  V30 14 1 12 15
M  V30 15 1 12 16
M  V30 16 2 13 17
M  V30 17 1 13 18
M  V30 18 1 14 19
M  V30 19 2 15 20
M  V30 20 1 16 21
M  V30 21 1 18 22
M  V30 22 1 19 23
M  V30 23 1 19 24
M  V30 24 1 20 25
M  V30 25 1 21 26
M  V30 26 1 22 27
M  V30 27 2 25 28
M  V30 28 1 25 29
M  V30 29 1 29 30
M  V30 30 1 11 14
M  V30 31 1 17 20
M  V30 END BOND
M  V30 BEGIN COLLECTION
M  V30 MDLV30/STERAC1 ATOMS=(1 4)
M  V30 END COLLECTION
M  V30 END CTAB
M  END
>  <Molecule ChEMBL ID>
CHEMBL371832

>  <Smiles>
CCCc1cc(C(=O)CC)cc(CCC)c1CC(C(=O)O)c1ccc(C(C)C)cc1

>  <IC50_nM>
50000

>  <Assay Description>
In vitro binding affinity for human PPAR gamma

$$$$
CHEMBL192791
Actelion Java MolfileCreator 2.0

  0  0  0  0  0  0              0 V3000
M  V30 BEGIN CTAB
M  V30 COUNTS 32 34 0 0 0
M  V30 BEGIN ATOM
M  V30 1 Cl 9.1266 1.5055 0.0 0
M  V30 2 C 9.1266 0.0 0.0 0
M  V30 3 C 7.8228 -0.7527 0.0 0
M  V30 4 C 10.4304 -0.7527 0.0 0
M  V30 5 O 6.519 0.0 0.0 0
M  V30 6 C 7.8228 -2.2582 0.0 0
M  V30 7 C 10.4304 -2.2582 0.0 0
M  V30 8 C 5.2152 -0.7527 0.0 0
M  V30 9 C 9.1266 -3.011 0.0 0
M  V30 10 O 11.7343 -3.011 0.0 0
M  V30 11 C 3.9114 0.0 0.0 0
M  V30 12 C 13.0381 -2.2582 0.0 0
M  V30 13 C 2.6076 -0.7527 0.0 0
M  V30 14 F 12.2853 -0.9544 0.0 0
M  V30 15 F 14.3419 -1.5055 0.0 0
M  V30 16 F 13.7908 -3.562 0.0 0
M  V30 17 O 1.3038 0.0 0.0 0
M  V30 18 C 0.0 -0.7527 0.0 0
M  V30 19 C 0.0 -2.2582 0.0 0
M  V30 20 C -1.3038 0.0 0.0 0
M  V30 21 C -1.3038 -3.011 0.0 0
M  V30 22 C -2.6076 -0.7527 0.0 0
M  V30 23 C -2.6076 -2.2582 0.0 0
M  V30 24 C -1.6168 -4.4836 0.0 0
M  V30 25 O -3.7264 -3.2656 0.0 0
M  V30 26 C -3.114 -4.641 0.0 0 CFG=1
M  V30 27 C -3.8668 -5.9448 0.0 0
M  V30 28 C -4.6175 -4.5622 0.0 0
M  V30 29 O -3.114 -7.2486 0.0 0
M  V30 30 O -5.2253 -6.2155 0.0 0
M  V30 31 C -5.511 -5.6894 0.0 0
M  V30 32 C -5.301 -3.2207 0.0 0
M  V30 END ATOM
M  V30 BEGIN BOND
M  V30 1 1 1 2
M  V30 2 2 2 3
M  V30 3 1 2 4
M  V30 4 1 3 5
M  V30 5 1 3 6
M  V30 6 2 4 7
M  V30 7 1 5 8
M  V30 8 2 6 9
M  V30 9 1 7 10
M  V30 10 1 8 11
M  V30 11 1 10 12
M  V30 12 1 11 13
M  V30 13 1 12 14
M  V30 14 1 12 15
M  V30 15 1 12 16
M  V30 16 1 13 17
M  V30 17 1 17 18
M  V30 18 2 18 19
M  V30 19 1 18 20
M  V30 20 1 19 21
M  V30 21 2 20 22
M  V30 22 2 21 23
M  V30 23 1 21 24
M  V30 24 1 23 25
M  V30 25 1 24 26
M  V30 26 1 26 27 CFG=3
M  V30 27 1 26 28
M  V30 28 2 27 29
M  V30 29 1 27 30
M  V30 30 1 28 31
M  V30 31 1 28 32
M  V30 32 1 7 9
M  V30 33 1 22 23
M  V30 34 1 25 26
M  V30 END BOND
M  V30 BEGIN COLLECTION
M  V30 MDLV30/STEABS ATOMS=(1 26)
M  V30 END COLLECTION
M  V30 END CTAB
M  END
>  <Molecule ChEMBL ID>
CHEMBL192791

>  <Smiles>
CC(C)[C@]1(C(=O)O)Cc2cc(OCCCOc3ccc(OC(F)(F)F)cc3Cl)ccc2O1

>  <IC50_nM>
50000

>  <Assay Description>
In vitro binding affinity for PPAR-gamma

$$$$
CHEMBL193459
Actelion Java MolfileCreator 2.0

  0  0  0  0  0  0              0 V3000
M  V30 BEGIN CTAB
M  V30 COUNTS 31 33 0 0 0
M  V30 BEGIN ATOM
M  V30 1 F 9.1602 -2.6339 0.0 0
M  V30 2 C 8.6602 -3.5 0.0 0
M  V30 3 F 9.5262 -4.0 0.0 0
M  V30 4 F 8.1602 -4.366 0.0 0
M  V30 5 C 7.7942 -3.0 0.0 0
M  V30 6 O 7.7942 -2.0 0.0 0
M  V30 7 C 6.9282 -1.5 0.0 0
M  V30 8 C 6.9282 -0.5 0.0 0
M  V30 9 C 6.0621 -2.0 0.0 0
M  V30 10 C 6.0621 0.0 0.0 0
M  V30 11 C 5.1961 -1.5 0.0 0
M  V30 12 C 5.1961 -0.5 0.0 0
M  V30 13 O 4.3301 0.0 0.0 0
M  V30 14 C 3.4641 -0.5 0.0 0
M  V30 15 C 2.598 0.0 0.0 0
M  V30 16 C 1.732 -0.5 0.0 0
M  V30 17 O 0.866 0.0 0.0 0
M  V30 18 C 0.0 -0.5 0.0 0
M  V30 19 C 0.0 -1.4999 0.0 0
M  V30 20 C -0.866 0.0 0.0 0
M  V30 21 C -0.866 -1.9999 0.0 0
M  V30 22 C -1.732 -0.4999 0.0 0
M  V30 23 C -1.732 -1.4999 0.0 0
M  V30 24 C -1.0739 -2.9781 0.0 0
M  V30 25 O -2.4751 -2.1691 0.0 0
M  V30 26 C -2.0684 -3.0826 0.0 0 CFG=2
M  V30 27 C -3.067 -3.0303 0.0 0
M  V30 28 C -2.5684 -3.9487 0.0 0
M  V30 29 O -3.6117 -3.869 0.0 0
M  V30 30 O -3.521 -2.1393 0.0 0
M  V30 31 C -2.0684 -4.8147 0.0 0
M  V30 END ATOM
M  V30 BEGIN BOND
M  V30 1 1 1 2
M  V30 2 1 2 3
M  V30 3 1 2 4
M  V30 4 1 2 5
M  V30 5 1 5 6
M  V30 6 1 6 7
M  V30 7 2 7 8
M  V30 8 1 7 9
M  V30 9 1 8 10
M  V30 10 2 9 11
M  V30 11 2 10 12
M  V30 12 1 12 13
M  V30 13 1 13 14
M  V30 14 1 14 15
M  V30 15 1 15 16
M  V30 16 1 16 17
M  V30 17 1 17 18
M  V30 18 2 18 19
M  V30 19 1 18 20
M  V30 20 1 19 21
M  V30 21 2 20 22
M  V30 22 2 21 23
M  V30 23 1 21 24
M  V30 24 1 23 25
M  V30 25 1 24 26
M  V30 26 1 26 27
M  V30 27 1 26 28 CFG=3
M  V30 28 2 27 29
M  V30 29 1 27 30
M  V30 30 1 28 31
M  V30 31 1 11 12
M  V30 32 1 22 23
M  V30 33 1 25 26
M  V30 END BOND
M  V30 BEGIN COLLECTION
M  V30 MDLV30/STEABS ATOMS=(1 26)
M  V30 END COLLECTION
M  V30 END CTAB
M  END
>  <Molecule ChEMBL ID>
CHEMBL193459

>  <Smiles>
CC[C@@]1(C(=O)O)Cc2cc(OCCCOc3ccc(OCC(F)(F)F)cc3)ccc2O1

>  <IC50_nM>
50000

>  <Assay Description>
In vitro binding affinity for PPAR-gamma

$$$$
CHEMBL4466846
Actelion Java MolfileCreator 2.0

  0  0  0  0  0  0              0 V3000
M  V30 BEGIN CTAB
M  V30 COUNTS 38 41 0 0 0
M  V30 BEGIN ATOM
M  V30 1 Cl 3.1121 -2.6795 0.0 0
M  V30 2 C 4.4736 -3.0872 0.0 0
M  V30 3 C 5.5905 -2.0815 0.0 0
M  V30 4 C 4.7861 -4.5574 0.0 0
M  V30 5 C 7.02 -2.5459 0.0 0
M  V30 6 C 5.278 -0.6113 0.0 0
M  V30 7 C 6.2155 -5.0219 0.0 0
M  V30 8 C 7.3325 -4.0161 0.0 0
M  V30 9 C 8.137 -1.5402 0.0 0
M  V30 10 N 6.2838 0.5056 0.0 0
M  V30 11 C 3.905 0.0 0.0 0
M  V30 12 F 9.1427 -2.6572 0.0 0
M  V30 13 F 9.254 -0.5345 0.0 0
M  V30 14 F 7.1313 -0.4232 0.0 0
M  V30 15 O 5.5323 1.8073 0.0 0
M  V30 16 C 4.0621 1.4948 0.0 0
M  V30 17 C 2.6033 -0.7515 0.0 0
M  V30 18 C 2.9451 2.5005 0.0 0
M  V30 19 O 1.3016 0.0 0.0 0
M  V30 20 N 2.5693 -2.2261 0.0 0
M  V30 21 C 3.2576 3.9707 0.0 0
M  V30 22 C 1.5156 2.036 0.0 0
M  V30 23 C 1.3016 -3.006 0.0 0
M  V30 24 C 2.1406 4.9764 0.0 0
M  V30 25 C 0.3986 3.0417 0.0 0
M  V30 26 C 1.3016 -4.5091 0.0 0
M  V30 27 C 0.0 -2.2545 0.0 0
M  V30 28 C 0.7111 4.5119 0.0 0
M  V30 29 C 0.0 -5.2606 0.0 0
M  V30 30 C -1.3016 -3.006 0.0 0
M  V30 31 C -1.3016 -4.5091 0.0 0
M  V30 32 C -2.6033 -5.2606 0.0 0
M  V30 33 O -3.905 -4.5091 0.0 0
M  V30 34 O -2.6033 -6.7636 0.0 0
M  V30 35 C -3.905 -7.5151 0.0 0
M  V30 36 C -4.6565 -6.2135 0.0 0
M  V30 37 C -5.2066 -8.2666 0.0 0
M  V30 38 C -3.1534 -8.8168 0.0 0
M  V30 END ATOM
M  V30 BEGIN BOND
M  V30 1 1 1 2
M  V30 2 2 2 3
M  V30 3 1 2 4
M  V30 4 1 3 5
M  V30 5 1 3 6
M  V30 6 2 4 7
M  V30 7 2 5 8
M  V30 8 1 5 9
M  V30 9 2 6 10
M  V30 10 1 6 11
M  V30 11 1 9 12
M  V30 12 1 9 13
M  V30 13 1 9 14
M  V30 14 1 10 15
M  V30 15 2 11 16
M  V30 16 1 11 17
M  V30 17 1 16 18
M  V30 18 2 17 19
M  V30 19 1 17 20
M  V30 20 2 18 21
M  V30 21 1 18 22
M  V30 22 1 20 23
M  V30 23 1 21 24
M  V30 24 2 22 25
M  V30 25 2 23 26
M  V30 26 1 23 27
M  V30 27 2 24 28
M  V30 28 1 26 29
M  V30 29 2 27 30
M  V30 30 2 29 31
M  V30 31 1 31 32
M  V30 32 2 32 33
M  V30 33 1 32 34
M  V30 34 1 34 35
M  V30 35 1 35 36
M  V30 36 1 35 37
M  V30 37 1 35 38
M  V30 38 1 7 8
M  V30 39 1 15 16
M  V30 40 1 25 28
M  V30 41 1 30 31
M  V30 END BOND
M  V30 END CTAB
M  END
>  <Molecule ChEMBL ID>
CHEMBL4466846

>  <Smiles>
CC(C)(C)OC(=O)c1ccc(NC(=O)c2c(-c3c(Cl)cccc3C(F)(F)F)noc2-c2ccccc2)cc1

>  <IC50_nM>
50000

>  <Assay Description>
Inverse agonist activity at His6-tagged PPARgamma LBD (unknown origin) assessed as inhibition of rosiglitazone-induced N-terminal biotinylated co-activator SRC1 box2 peptide recruitment measured after 30 mins by TR-FRET assay

$$$$
CHEMBL477690
Actelion Java MolfileCreator 2.0

  0  0  0  0  0  0              0 V3000
M  V30 BEGIN CTAB
M  V30 COUNTS 31 34 0 0 0
M  V30 BEGIN ATOM
M  V30 1 O 6.9282 -4.5 0.0 0
M  V30 2 C 6.9282 -3.5 0.0 0
M  V30 3 O 7.7942 -3.0 0.0 0
M  V30 4 C 6.0621 -3.0 0.0 0 CFG=1
M  V30 5 N 5.1961 -3.5 0.0 0
M  V30 6 C 6.0621 -1.9999 0.0 0
M  V30 7 C 4.2826 -3.0932 0.0 0
M  V30 8 C 5.0916 -4.4945 0.0 0
M  V30 9 C 5.1961 -1.4999 0.0 0
M  V30 10 C 3.6134 -3.8364 0.0 0
M  V30 11 C 4.1134 -4.7024 0.0 0
M  V30 12 C 5.1961 -0.5 0.0 0
M  V30 13 C 4.3301 -1.9999 0.0 0
M  V30 14 C 4.3301 0.0 0.0 0
M  V30 15 C 3.4641 -1.5 0.0 0
M  V30 16 C 3.4641 -0.5 0.0 0
M  V30 17 C 2.598 0.0 0.0 0
M  V30 18 N 1.732 -0.5 0.0 0
M  V30 19 C 0.866 0.0 0.0 0
M  V30 20 C 0.0 -0.5 0.0 0
M  V30 21 N -0.9135 -0.0932 0.0 0
M  V30 22 C -0.1045 -1.4945 0.0 0
M  V30 23 C -1.5826 -0.8364 0.0 0
M  V30 24 O -1.0826 -1.7024 0.0 0
M  V30 25 C 0.6386 -2.1636 0.0 0
M  V30 26 C -2.5771 -0.7318 0.0 0
M  V30 27 C -2.9839 0.1816 0.0 0
M  V30 28 C -3.1649 -1.5408 0.0 0
M  V30 29 C -3.9784 0.2861 0.0 0
M  V30 30 C -4.1595 -1.4363 0.0 0
M  V30 31 C -4.5662 -0.5228 0.0 0
M  V30 END ATOM
M  V30 BEGIN BOND
M  V30 1 2 1 2
M  V30 2 1 2 3
M  V30 3 1 2 4
M  V30 4 1 4 5 CFG=1
M  V30 5 1 4 6
M  V30 6 1 5 7
M  V30 7 1 5 8
M  V30 8 1 6 9
M  V30 9 2 7 10
M  V30 10 2 8 11
M  V30 11 2 9 12
M  V30 12 1 9 13
M  V30 13 1 12 14
M  V30 14 2 13 15
M  V30 15 2 14 16
M  V30 16 1 16 17
M  V30 17 1 17 18
M  V30 18 1 18 19
M  V30 19 1 19 20
M  V30 20 1 20 21
M  V30 21 2 20 22
M  V30 22 2 21 23
M  V30 23 1 22 24
M  V30 24 1 22 25
M  V30 25 1 23 26
M  V30 26 2 26 27
M  V30 27 1 26 28
M  V30 28 1 27 29
M  V30 29 2 28 30
M  V30 30 2 29 31
M  V30 31 1 10 11
M  V30 32 1 15 16
M  V30 33 1 23 24
M  V30 34 1 30 31
M  V30 END BOND
M  V30 BEGIN COLLECTION
M  V30 MDLV30/STEABS ATOMS=(1 4)
M  V30 END COLLECTION
M  V30 END CTAB
M  END
>  <Molecule ChEMBL ID>
CHEMBL477690

>  <Smiles>
Cc1oc(-c2ccccc2)nc1CNCc1ccc(C[C@@H](C(=O)O)n2cccc2)cc1

>  <IC50_nM>
50000

>  <Assay Description>
Displacement of [3H]darglitazone from human PPARgamma by scintillation proximity assay

$$$$
CHEMBL187612
Actelion Java MolfileCreator 2.0

  0  0  0  0  0  0              0 V3000
M  V30 BEGIN CTAB
M  V30 COUNTS 30 31 0 0 0
M  V30 BEGIN ATOM
M  V30 1 O 3.9425 -3.035 0.0 0
M  V30 2 C 2.6283 -2.2762 0.0 0
M  V30 3 O 1.6104 -2.798 0.0 0
M  V30 4 C 2.6283 -0.7587 0.0 0 CFG=2
M  V30 5 N 1.3141 0.0 0.0 0
M  V30 6 C 3.9425 0.0 0.0 0
M  V30 7 C 0.0 -0.7587 0.0 0
M  V30 8 C 3.9425 1.5175 0.0 0
M  V30 9 C 5.2567 -0.7587 0.0 0
M  V30 10 C -1.3141 0.0 0.0 0
M  V30 11 C 0.0 -2.2762 0.0 0
M  V30 12 C 5.2567 2.2762 0.0 0
M  V30 13 C 6.5709 0.0 0.0 0
M  V30 14 C -2.6283 -0.7587 0.0 0
M  V30 15 C -1.3141 1.5175 0.0 0
M  V30 16 C -1.3141 -3.035 0.0 0
M  V30 17 C 1.166 -3.1535 0.0 0
M  V30 18 C 6.5709 1.5175 0.0 0
M  V30 19 C -2.6283 -2.2762 0.0 0
M  V30 20 C 0.0 2.2762 0.0 0
M  V30 21 C 1.3141 -4.5525 0.0 0
M  V30 22 C 7.8851 2.2762 0.0 0
M  V30 23 C -3.9425 -3.035 0.0 0
M  V30 24 C 0.0 3.7937 0.0 0
M  V30 25 C 0.0 -5.3112 0.0 0
M  V30 26 C 7.8851 3.7937 0.0 0
M  V30 27 C 9.1993 1.5175 0.0 0
M  V30 28 O -3.9425 -4.5525 0.0 0
M  V30 29 C -5.2567 -2.2762 0.0 0
M  V30 30 C -6.5709 -3.035 0.0 0
M  V30 END ATOM
M  V30 BEGIN BOND
M  V30 1 2 1 2
M  V30 2 1 2 3
M  V30 3 1 2 4
M  V30 4 1 4 5 CFG=3
M  V30 5 1 4 6
M  V30 6 1 5 7
M  V30 7 2 6 8
M  V30 8 1 6 9
M  V30 9 2 7 10
M  V30 10 1 7 11
M  V30 11 1 8 12
M  V30 12 2 9 13
M  V30 13 1 10 14
M  V30 14 1 10 15
M  V30 15 2 11 16
M  V30 16 1 11 17
M  V30 17 2 12 18
M  V30 18 2 14 19
M  V30 19 1 15 20
M  V30 20 1 17 21
M  V30 21 1 18 22
M  V30 22 1 19 23
M  V30 23 1 20 24
M  V30 24 1 21 25
M  V30 25 1 22 26
M  V30 26 1 22 27
M  V30 27 2 23 28
M  V30 28 1 23 29
M  V30 29 1 29 30
M  V30 30 1 13 18
M  V30 31 1 16 19
M  V30 END BOND
M  V30 BEGIN COLLECTION
M  V30 MDLV30/STERAC1 ATOMS=(1 4)
M  V30 END COLLECTION
M  V30 END CTAB
M  END
>  <Molecule ChEMBL ID>
CHEMBL187612

>  <Smiles>
CCCc1cc(C(=O)CC)cc(CCC)c1NC(C(=O)O)c1ccc(C(C)C)cc1

>  <IC50_nM>
50000

>  <Assay Description>
In vitro binding affinity for human PPAR gamma

$$$$
CHEMBL5200843
Actelion Java MolfileCreator 2.0

  0  0  0  0  0  0              0 V3000
M  V30 BEGIN CTAB
M  V30 COUNTS 31 34 0 0 0
M  V30 BEGIN ATOM
M  V30 1 Cl 1.732 1.4999 0.0 0
M  V30 2 C 2.598 1.0 0.0 0
M  V30 3 C 2.598 0.0 0.0 0
M  V30 4 C 3.4641 1.4999 0.0 0
M  V30 5 C 1.732 -0.5 0.0 0
M  V30 6 C 3.4641 -0.5 0.0 0
M  V30 7 C 4.3301 1.0 0.0 0
M  V30 8 O 1.732 -1.5 0.0 0
M  V30 9 N 0.866 0.0 0.0 0
M  V30 10 C 4.3301 0.0 0.0 0
M  V30 11 C 0.0 -0.5 0.0 0
M  V30 12 C 5.1961 -0.5 0.0 0
M  V30 13 C -0.866 0.0 0.0 0
M  V30 14 C 0.0 -1.5 0.0 0
M  V30 15 F 5.6961 0.366 0.0 0
M  V30 16 F 6.0621 -0.9999 0.0 0
M  V30 17 F 4.6961 -1.366 0.0 0
M  V30 18 C -1.732 -0.4999 0.0 0
M  V30 19 C -0.866 -1.9999 0.0 0
M  V30 20 N -2.6831 -0.1909 0.0 0
M  V30 21 C -1.732 -1.4999 0.0 0
M  V30 22 C -3.2708 -0.9999 0.0 0
M  V30 23 O -2.6831 -1.809 0.0 0
M  V30 24 C -4.2708 -0.9999 0.0 0
M  V30 25 C -4.7708 -0.1339 0.0 0
M  V30 26 C -4.7708 -1.866 0.0 0
M  V30 27 C -5.7708 -0.1339 0.0 0
M  V30 28 C -5.7708 -1.866 0.0 0
M  V30 29 C -6.2708 -0.9999 0.0 0
M  V30 30 C -7.2708 -0.9999 0.0 0
M  V30 31 C -7.7708 -1.866 0.0 0
M  V30 END ATOM
M  V30 BEGIN BOND
M  V30 1 1 1 2
M  V30 2 2 2 3
M  V30 3 1 2 4
M  V30 4 1 3 5
M  V30 5 1 3 6
M  V30 6 2 4 7
M  V30 7 2 5 8
M  V30 8 1 5 9
M  V30 9 2 6 10
M  V30 10 1 9 11
M  V30 11 1 10 12
M  V30 12 2 11 13
M  V30 13 1 11 14
M  V30 14 1 12 15
M  V30 15 1 12 16
M  V30 16 1 12 17
M  V30 17 1 13 18
M  V30 18 2 14 19
M  V30 19 1 18 20
M  V30 20 2 18 21
M  V30 21 2 20 22
M  V30 22 1 21 23
M  V30 23 1 22 24
M  V30 24 2 24 25
M  V30 25 1 24 26
M  V30 26 1 25 27
M  V30 27 2 26 28
M  V30 28 2 27 29
M  V30 29 1 29 30
M  V30 30 1 30 31
M  V30 31 1 7 10
M  V30 32 1 19 21
M  V30 33 1 22 23
M  V30 34 1 28 29
M  V30 END BOND
M  V30 END CTAB
M  END
>  <Molecule ChEMBL ID>
CHEMBL5200843

>  <Smiles>
CCc1ccc(-c2nc3cc(NC(=O)c4cc(C(F)(F)F)ccc4Cl)ccc3o2)cc1

>  <IC50_nM>
50000

>  <Assay Description>
Inverse agonist activity at PPARgamma in human RT112/84-FABP4 cells assessed as reduction in PPARgamma transactivation measured by Nanoluciferase reporter gene assay

$$$$
CHEMBL195367
Actelion Java MolfileCreator 2.0

  0  0  0  0  0  0              0 V3000
M  V30 BEGIN CTAB
M  V30 COUNTS 26 28 0 0 0
M  V30 BEGIN ATOM
M  V30 1 S 7.8987 0.0054 0.0 0
M  V30 2 C 8.8769 -0.2024 0.0 0
M  V30 3 C 7.7942 0.9999 0.0 0 CFG=2
M  V30 4 O 9.2836 -1.1159 0.0 0
M  V30 5 N 9.3769 0.6635 0.0 0
M  V30 6 C 8.7077 1.4067 0.0 0
M  V30 7 C 6.9282 1.4999 0.0 0
M  V30 8 C 10.3714 0.7681 0.0 0
M  V30 9 O 8.9156 2.3848 0.0 0
M  V30 10 C 6.0621 0.9999 0.0 0
M  V30 11 C 5.1961 1.4999 0.0 0
M  V30 12 C 6.0621 0.0 0.0 0
M  V30 13 C 4.3301 0.9999 0.0 0
M  V30 14 C 5.1961 -0.5 0.0 0
M  V30 15 C 4.3301 0.0 0.0 0
M  V30 16 O 3.4641 -0.5 0.0 0
M  V30 17 C 2.598 0.0 0.0 0
M  V30 18 C 1.732 -0.5 0.0 0
M  V30 19 N 0.866 0.0 0.0 0
M  V30 20 C 0.866 1.0 0.0 0
M  V30 21 C 0.0 -0.5 0.0 0
M  V30 22 N 1.732 1.4999 0.0 0
M  V30 23 C 0.0 1.4999 0.0 0
M  V30 24 C 1.732 2.5 0.0 0
M  V30 25 C 0.0 2.5 0.0 0
M  V30 26 C 0.866 3.0 0.0 0
M  V30 END ATOM
M  V30 BEGIN BOND
M  V30 1 1 1 2
M  V30 2 1 1 3
M  V30 3 2 2 4
M  V30 4 1 2 5
M  V30 5 1 3 6
M  V30 6 1 3 7 CFG=1
M  V30 7 1 5 8
M  V30 8 2 6 9
M  V30 9 1 7 10
M  V30 10 2 10 11
M  V30 11 1 10 12
M  V30 12 1 11 13
M  V30 13 2 12 14
M  V30 14 2 13 15
M  V30 15 1 15 16
M  V30 16 1 16 17
M  V30 17 1 17 18
M  V30 18 1 18 19
M  V30 19 1 19 20
M  V30 20 1 19 21
M  V30 21 2 20 22
M  V30 22 1 20 23
M  V30 23 1 22 24
M  V30 24 2 23 25
M  V30 25 2 24 26
M  V30 26 1 5 6
M  V30 27 1 14 15
M  V30 28 1 25 26
M  V30 END BOND
M  V30 BEGIN COLLECTION
M  V30 MDLV30/STERAC1 ATOMS=(1 3)
M  V30 END COLLECTION
M  V30 END CTAB
M  END
>  <Molecule ChEMBL ID>
CHEMBL195367

>  <Smiles>
CN1C(=O)SC(Cc2ccc(OCCN(C)c3ccccn3)cc2)C1=O

>  <IC50_nM>
50000

>  <Assay Description>
Inhibition of human peroxisome proliferator activated receptor gamma binding

$$$$
CHEMBL5170260
Actelion Java MolfileCreator 2.0

  0  0  0  0  0  0              0 V3000
M  V30 BEGIN CTAB
M  V30 COUNTS 30 33 0 0 0
M  V30 BEGIN ATOM
M  V30 1 Cl 2.598 2.25 0.0 0
M  V30 2 C 3.8971 1.5 0.0 0
M  V30 3 C 3.8971 0.0 0.0 0
M  V30 4 C 5.1961 2.25 0.0 0
M  V30 5 C 2.598 -0.75 0.0 0
M  V30 6 C 5.1961 -0.75 0.0 0
M  V30 7 C 6.4951 1.5 0.0 0
M  V30 8 O 2.598 -2.25 0.0 0
M  V30 9 N 1.299 0.0 0.0 0
M  V30 10 C 6.4951 0.0 0.0 0
M  V30 11 C 0.0 -0.75 0.0 0
M  V30 12 N 7.7942 -0.75 0.0 0 CHG=1
M  V30 13 C -1.299 0.0 0.0 0
M  V30 14 C 0.0 -2.25 0.0 0
M  V30 15 O 7.7942 -2.25 0.0 0
M  V30 16 O 9.0932 0.0 0.0 0 CHG=-1
M  V30 17 C -2.598 -0.7499 0.0 0
M  V30 18 C -1.299 -2.9999 0.0 0
M  V30 19 C -3.8971 0.0 0.0 0
M  V30 20 C -2.598 -2.2499 0.0 0
M  V30 21 O -4.0539 1.4917 0.0 0
M  V30 22 N -5.2674 -0.6101 0.0 0
M  V30 23 C -5.5211 1.8036 0.0 0
M  V30 24 C -6.2711 0.5046 0.0 0
M  V30 25 C -6.2711 3.1026 0.0 0
M  V30 26 C -7.7711 0.5046 0.0 0
M  V30 27 C -7.7711 3.1026 0.0 0
M  V30 28 C -8.5211 1.8036 0.0 0
M  V30 29 C -10.0211 1.8036 0.0 0
M  V30 30 C -10.7711 0.5046 0.0 0
M  V30 END ATOM
M  V30 BEGIN BOND
M  V30 1 1 1 2
M  V30 2 2 2 3
M  V30 3 1 2 4
M  V30 4 1 3 5
M  V30 5 1 3 6
M  V30 6 2 4 7
M  V30 7 2 5 8
M  V30 8 1 5 9
M  V30 9 2 6 10
M  V30 10 1 9 11
M  V30 11 1 10 12
M  V30 12 2 11 13
M  V30 13 1 11 14
M  V30 14 2 12 15
M  V30 15 1 12 16
M  V30 16 1 13 17
M  V30 17 2 14 18
M  V30 18 1 17 19
M  V30 19 2 17 20
M  V30 20 1 19 21
M  V30 21 2 19 22
M  V30 22 1 21 23
M  V30 23 1 22 24
M  V30 24 1 23 25
M  V30 25 1 24 26
M  V30 26 2 25 27
M  V30 27 2 26 28
M  V30 28 1 28 29
M  V30 29 1 29 30
M  V30 30 1 7 10
M  V30 31 1 18 20
M  V30 32 2 23 24
M  V30 33 1 27 28
M  V30 END BOND
M  V30 END CTAB
M  END
>  <Molecule ChEMBL ID>
CHEMBL5170260

>  <Smiles>
CCc1ccc2oc(-c3cccc(NC(=O)c4cc([N+](=O)[O-])ccc4Cl)c3)nc2c1

>  <IC50_nM>
50000

>  <Assay Description>
Inverse agonist activity at PPARgamma in human RT112/84-FABP4 cells assessed as reduction in PPARgamma transactivation measured by Nanoluciferase reporter gene assay

$$$$
CHEMBL4452679
Actelion Java MolfileCreator 2.0

  0  0  0  0  0  0              0 V3000
M  V30 BEGIN CTAB
M  V30 COUNTS 35 38 0 0 0
M  V30 BEGIN ATOM
M  V30 1 Cl 2.4894 -1.4045 0.0 0
M  V30 2 C 2.817 -2.7873 0.0 0
M  V30 3 C 4.2463 -3.2517 0.0 0
M  V30 4 C 1.7001 -3.7929 0.0 0
M  V30 5 C 4.5588 -4.7217 0.0 0
M  V30 6 C 5.3632 -2.2461 0.0 0
M  V30 7 C 2.0126 -5.2629 0.0 0
M  V30 8 C 3.4419 -5.7274 0.0 0
M  V30 9 C 5.9881 -5.1861 0.0 0
M  V30 10 N 6.8333 -2.5585 0.0 0
M  V30 11 C 5.2061 -0.7514 0.0 0
M  V30 12 F 5.5237 -6.6155 0.0 0
M  V30 13 F 7.4175 -5.6506 0.0 0
M  V30 14 F 6.4526 -3.7568 0.0 0
M  V30 15 O 7.5847 -1.257 0.0 0
M  V30 16 C 6.5791 -0.1401 0.0 0
M  V30 17 C 3.9046 0.0 0.0 0
M  V30 18 C 6.8915 1.3298 0.0 0
M  V30 19 O 2.6106 -0.7078 0.0 0
M  V30 20 N 3.9046 1.5028 0.0 0
M  V30 21 C 8.3209 1.7943 0.0 0
M  V30 22 C 5.7747 2.3355 0.0 0
M  V30 23 C 2.603 2.2543 0.0 0
M  V30 24 C 8.6333 3.2643 0.0 0
M  V30 25 C 6.0871 3.8055 0.0 0
M  V30 26 C 2.603 3.7572 0.0 0
M  V30 27 C 7.5165 4.2699 0.0 0
M  V30 28 C 1.3015 4.5086 0.0 0
M  V30 29 C 3.9046 4.5086 0.0 0
M  V30 30 C 1.3015 6.0115 0.0 0
M  V30 31 C 3.9046 6.0115 0.0 0
M  V30 32 C 2.603 6.763 0.0 0
M  V30 33 C 2.603 8.2658 0.0 0
M  V30 34 O 1.3015 9.0173 0.0 0
M  V30 35 O 3.9046 9.0173 0.0 0
M  V30 END ATOM
M  V30 BEGIN BOND
M  V30 1 1 1 2
M  V30 2 2 2 3
M  V30 3 1 2 4
M  V30 4 1 3 5
M  V30 5 1 3 6
M  V30 6 2 4 7
M  V30 7 2 5 8
M  V30 8 1 5 9
M  V30 9 2 6 10
M  V30 10 1 6 11
M  V30 11 1 9 12
M  V30 12 1 9 13
M  V30 13 1 9 14
M  V30 14 1 10 15
M  V30 15 2 11 16
M  V30 16 1 11 17
M  V30 17 1 16 18
M  V30 18 2 17 19
M  V30 19 1 17 20
M  V30 20 2 18 21
M  V30 21 1 18 22
M  V30 22 1 20 23
M  V30 23 1 21 24
M  V30 24 2 22 25
M  V30 25 1 23 26
M  V30 26 2 24 27
M  V30 27 2 26 28
M  V30 28 1 26 29
M  V30 29 1 28 30
M  V30 30 2 29 31
M  V30 31 2 30 32
M  V30 32 1 32 33
M  V30 33 2 33 34
M  V30 34 1 33 35
M  V30 35 1 7 8
M  V30 36 1 15 16
M  V30 37 1 25 27
M  V30 38 1 31 32
M  V30 END BOND
M  V30 END CTAB
M  END
>  <Molecule ChEMBL ID>
CHEMBL4452679

>  <Smiles>
O=C(O)c1ccc(CNC(=O)c2c(-c3c(Cl)cccc3C(F)(F)F)noc2-c2ccccc2)cc1

>  <IC50_nM>
50000

>  <Assay Description>
Inverse agonist activity at His6-tagged PPARgamma LBD (unknown origin) assessed as inhibition of rosiglitazone-induced N-terminal biotinylated co-activator SRC1 box2 peptide recruitment measured after 30 mins by TR-FRET assay

$$$$
CHEMBL4587804
Actelion Java MolfileCreator 2.0

  0  0  0  0  0  0              0 V3000
M  V30 BEGIN CTAB
M  V30 COUNTS 33 36 0 0 0
M  V30 BEGIN ATOM
M  V30 1 Cl 2.0253 -1.7449 0.0 0
M  V30 2 C 2.9763 -2.054 0.0 0
M  V30 3 C 3.7195 -1.3848 0.0 0
M  V30 4 C 3.1843 -3.0321 0.0 0
M  V30 5 C 4.6705 -1.6939 0.0 0
M  V30 6 C 3.5116 -0.4067 0.0 0
M  V30 7 C 4.1353 -3.3411 0.0 0
M  V30 8 C 4.8785 -2.672 0.0 0
M  V30 9 C 5.4137 -1.0247 0.0 0
M  V30 10 N 4.1807 0.3364 0.0 0
M  V30 11 C 2.598 0.0 0.0 0
M  V30 12 F 6.0828 -1.7679 0.0 0
M  V30 13 F 6.1568 -0.3556 0.0 0
M  V30 14 F 4.7446 -0.2816 0.0 0
M  V30 15 O 3.6807 1.2024 0.0 0
M  V30 16 N 1.732 -0.5 0.0 0
M  V30 17 C 2.7026 0.9945 0.0 0
M  V30 18 C 0.866 0.0 0.0 0
M  V30 19 C 1.9594 1.6636 0.0 0
M  V30 20 C 0.0 -0.5 0.0 0
M  V30 21 C 2.1673 2.6418 0.0 0
M  V30 22 C 1.0084 1.3546 0.0 0
M  V30 23 C -0.866 0.0 0.0 0
M  V30 24 C 0.0 -1.4999 0.0 0
M  V30 25 C 1.4242 3.3109 0.0 0
M  V30 26 C 0.2652 2.0237 0.0 0
M  V30 27 C -1.732 -0.4999 0.0 0
M  V30 28 C -0.866 -1.9999 0.0 0
M  V30 29 C 0.4731 3.0019 0.0 0
M  V30 30 C -1.732 -1.4999 0.0 0
M  V30 31 C -2.598 -1.9999 0.0 0
M  V30 32 O -3.4641 -1.4999 0.0 0
M  V30 33 O -2.598 -2.9999 0.0 0
M  V30 END ATOM
M  V30 BEGIN BOND
M  V30 1 1 1 2
M  V30 2 2 2 3
M  V30 3 1 2 4
M  V30 4 1 3 5
M  V30 5 1 3 6
M  V30 6 2 4 7
M  V30 7 2 5 8
M  V30 8 1 5 9
M  V30 9 2 6 10
M  V30 10 1 6 11
M  V30 11 1 9 12
M  V30 12 1 9 13
M  V30 13 1 9 14
M  V30 14 1 10 15
M  V30 15 1 11 16
M  V30 16 2 11 17
M  V30 17 1 16 18
M  V30 18 1 17 19
M  V30 19 1 18 20
M  V30 20 2 19 21
M  V30 21 1 19 22
M  V30 22 2 20 23
M  V30 23 1 20 24
M  V30 24 1 21 25
M  V30 25 2 22 26
M  V30 26 1 23 27
M  V30 27 2 24 28
M  V30 28 2 25 29
M  V30 29 2 27 30
M  V30 30 1 30 31
M  V30 31 2 31 32
M  V30 32 1 31 33
M  V30 33 1 7 8
M  V30 34 1 15 17
M  V30 35 1 26 29
M  V30 36 1 28 30
M  V30 END BOND
M  V30 END CTAB
M  END
>  <Molecule ChEMBL ID>
CHEMBL4587804

>  <Smiles>
O=C(O)c1ccc(CNc2c(-c3c(Cl)cccc3C(F)(F)F)noc2-c2ccccc2)cc1

>  <IC50_nM>
50000

>  <Assay Description>
Inverse agonist activity at His6-tagged PPARgamma LBD (unknown origin) assessed as inhibition of rosiglitazone-induced N-terminal biotinylated co-activator SRC1 box2 peptide recruitment measured after 30 mins by TR-FRET assay

$$$$
CHEMBL5171685
Actelion Java MolfileCreator 2.0

  0  0  0  0  0  0              0 V3000
M  V30 BEGIN CTAB
M  V30 COUNTS 27 30 0 0 0
M  V30 BEGIN ATOM
M  V30 1 Cl 3.4641 -1.4999 0.0 0
M  V30 2 C 3.4641 -0.4999 0.0 0
M  V30 3 N 4.3301 0.0 0.0 0
M  V30 4 C 2.598 0.0 0.0 0
M  V30 5 C 4.3301 1.0 0.0 0
M  V30 6 C 1.732 -0.5 0.0 0
M  V30 7 C 2.598 1.0 0.0 0
M  V30 8 C 3.4641 1.5 0.0 0
M  V30 9 O 1.732 -1.5 0.0 0
M  V30 10 N 0.866 0.0 0.0 0
M  V30 11 C 0.0 -0.5 0.0 0
M  V30 12 C -0.866 0.0 0.0 0
M  V30 13 C 0.0 -1.5 0.0 0
M  V30 14 C -1.732 -0.4999 0.0 0
M  V30 15 C -0.866 -1.9999 0.0 0
M  V30 16 N -2.6831 -0.1909 0.0 0
M  V30 17 C -1.732 -1.4999 0.0 0
M  V30 18 C -3.2708 -0.9999 0.0 0
M  V30 19 O -2.6831 -1.809 0.0 0
M  V30 20 C -4.2708 -0.9999 0.0 0
M  V30 21 C -4.7708 -0.1339 0.0 0
M  V30 22 C -4.7708 -1.866 0.0 0
M  V30 23 C -5.7708 -0.1339 0.0 0
M  V30 24 C -5.7708 -1.866 0.0 0
M  V30 25 C -6.2708 -0.9999 0.0 0
M  V30 26 C -7.2708 -0.9999 0.0 0
M  V30 27 C -7.7708 -1.866 0.0 0
M  V30 END ATOM
M  V30 BEGIN BOND
M  V30 1 1 1 2
M  V30 2 2 2 3
M  V30 3 1 2 4
M  V30 4 1 3 5
M  V30 5 1 4 6
M  V30 6 2 4 7
M  V30 7 2 5 8
M  V30 8 2 6 9
M  V30 9 1 6 10
M  V30 10 1 10 11
M  V30 11 2 11 12
M  V30 12 1 11 13
M  V30 13 1 12 14
M  V30 14 2 13 15
M  V30 15 1 14 16
M  V30 16 2 14 17
M  V30 17 2 16 18
M  V30 18 1 17 19
M  V30 19 1 18 20
M  V30 20 2 20 21
M  V30 21 1 20 22
M  V30 22 1 21 23
M  V30 23 2 22 24
M  V30 24 2 23 25
M  V30 25 1 25 26
M  V30 26 1 26 27
M  V30 27 1 7 8
M  V30 28 1 15 17
M  V30 29 1 18 19
M  V30 30 1 24 25
M  V30 END BOND
M  V30 END CTAB
M  END
>  <Molecule ChEMBL ID>
CHEMBL5171685

>  <Smiles>
CCc1ccc(-c2nc3cc(NC(=O)c4cccnc4Cl)ccc3o2)cc1

>  <IC50_nM>
50000

>  <Assay Description>
Inverse agonist activity at PPARgamma in human RT112/84-FABP4 cells assessed as reduction in PPARgamma transactivation measured by Nanoluciferase reporter gene assay

$$$$
CHEMBL4437814
Actelion Java MolfileCreator 2.0

  0  0  0  0  0  0              0 V3000
M  V30 BEGIN CTAB
M  V30 COUNTS 35 38 0 0 0
M  V30 BEGIN ATOM
M  V30 1 Cl 3.038 -2.6174 0.0 0
M  V30 2 C 4.4645 -3.081 0.0 0
M  V30 3 C 5.5793 -2.0773 0.0 0
M  V30 4 C 4.7764 -4.5482 0.0 0
M  V30 5 C 7.0058 -2.5408 0.0 0
M  V30 6 C 5.2674 -0.6101 0.0 0
M  V30 7 C 6.203 -5.0117 0.0 0
M  V30 8 C 7.3177 -4.008 0.0 0
M  V30 9 C 8.1206 -1.5371 0.0 0
M  V30 10 N 6.2711 0.5046 0.0 0
M  V30 11 C 3.8971 0.0 0.0 0
M  V30 12 F 9.1243 -2.6518 0.0 0
M  V30 13 F 9.2353 -0.5334 0.0 0
M  V30 14 F 7.1169 -0.4224 0.0 0
M  V30 15 O 5.5211 1.8036 0.0 0
M  V30 16 N 2.598 -0.75 0.0 0
M  V30 17 C 4.0539 1.4917 0.0 0
M  V30 18 S 1.299 0.0 0.0 0
M  V30 19 C 2.9391 2.4954 0.0 0
M  V30 20 O 2.049 1.299 0.0 0
M  V30 21 O 0.549 1.299 0.0 0
M  V30 22 C 0.0 -0.75 0.0 0
M  V30 23 C 3.251 3.9627 0.0 0
M  V30 24 C 1.5126 2.0319 0.0 0
M  V30 25 C -1.299 0.0 0.0 0
M  V30 26 C 0.0 -2.25 0.0 0
M  V30 27 C 2.1363 4.9664 0.0 0
M  V30 28 C 0.3978 3.0356 0.0 0
M  V30 29 C -2.598 -0.75 0.0 0
M  V30 30 C -1.299 -3.0 0.0 0
M  V30 31 C 0.7097 4.5028 0.0 0
M  V30 32 C -2.598 -2.25 0.0 0
M  V30 33 C -3.8971 -3.0 0.0 0
M  V30 34 O -5.1961 -2.25 0.0 0
M  V30 35 O -3.8971 -4.5 0.0 0
M  V30 END ATOM
M  V30 BEGIN BOND
M  V30 1 1 1 2
M  V30 2 2 2 3
M  V30 3 1 2 4
M  V30 4 1 3 5
M  V30 5 1 3 6
M  V30 6 2 4 7
M  V30 7 2 5 8
M  V30 8 1 5 9
M  V30 9 2 6 10
M  V30 10 1 6 11
M  V30 11 1 9 12
M  V30 12 1 9 13
M  V30 13 1 9 14
M  V30 14 1 10 15
M  V30 15 1 11 16
M  V30 16 2 11 17
M  V30 17 1 16 18
M  V30 18 1 17 19
M  V30 19 2 18 20
M  V30 20 2 18 21
M  V30 21 1 18 22
M  V30 22 2 19 23
M  V30 23 1 19 24
M  V30 24 2 22 25
M  V30 25 1 22 26
M  V30 26 1 23 27
M  V30 27 2 24 28
M  V30 28 1 25 29
M  V30 29 2 26 30
M  V30 30 2 27 31
M  V30 31 2 29 32
M  V30 32 1 32 33
M  V30 33 2 33 34
M  V30 34 1 33 35
M  V30 35 1 7 8
M  V30 36 1 15 17
M  V30 37 1 28 31
M  V30 38 1 30 32
M  V30 END BOND
M  V30 END CTAB
M  END
>  <Molecule ChEMBL ID>
CHEMBL4437814

>  <Smiles>
O=C(O)c1ccc(S(=O)(=O)Nc2c(-c3c(Cl)cccc3C(F)(F)F)noc2-c2ccccc2)cc1

>  <IC50_nM>
50000

>  <Assay Description>
Inverse agonist activity at His6-tagged PPARgamma LBD (unknown origin) assessed as inhibition of rosiglitazone-induced N-terminal biotinylated co-activator SRC1 box2 peptide recruitment measured after 30 mins by TR-FRET assay

$$$$
CHEMBL4452409
Actelion Java MolfileCreator 2.0

  0  0  0  0  0  0              0 V3000
M  V30 BEGIN CTAB
M  V30 COUNTS 34 37 0 0 0
M  V30 BEGIN ATOM
M  V30 1 Cl 3.1127 -2.6801 0.0 0
M  V30 2 C 4.4745 -3.0879 0.0 0
M  V30 3 C 5.5918 -2.0819 0.0 0
M  V30 4 C 4.7871 -4.5584 0.0 0
M  V30 5 C 7.0215 -2.5465 0.0 0
M  V30 6 C 5.2792 -0.6114 0.0 0
M  V30 7 C 6.2169 -5.023 0.0 0
M  V30 8 C 7.3341 -4.017 0.0 0
M  V30 9 C 8.1388 -1.5406 0.0 0
M  V30 10 N 6.2851 0.5057 0.0 0
M  V30 11 C 3.9058 0.0 0.0 0
M  V30 12 F 9.1447 -2.6578 0.0 0
M  V30 13 F 9.256 -0.5346 0.0 0
M  V30 14 F 7.1328 -0.4233 0.0 0
M  V30 15 O 5.5335 1.8076 0.0 0
M  V30 16 C 4.063 1.4951 0.0 0
M  V30 17 C 2.6039 -0.7516 0.0 0
M  V30 18 C 2.9457 2.501 0.0 0
M  V30 19 O 1.3019 0.0 0.0 0
M  V30 20 N 2.5699 -2.2266 0.0 0
M  V30 21 C 3.2583 3.9715 0.0 0
M  V30 22 C 1.5159 2.0365 0.0 0
M  V30 23 C 1.3019 -3.0067 0.0 0
M  V30 24 C 2.1411 4.9775 0.0 0
M  V30 25 C 0.3987 3.0424 0.0 0
M  V30 26 C 1.3019 -4.51 0.0 0
M  V30 27 C 0.0 -2.255 0.0 0
M  V30 28 C 0.7113 4.5129 0.0 0
M  V30 29 C 0.0 -5.2617 0.0 0
M  V30 30 C -1.3019 -3.0067 0.0 0
M  V30 31 C 0.0 -6.7651 0.0 0
M  V30 32 C -1.3019 -4.51 0.0 0
M  V30 33 O 1.3019 -7.5168 0.0 0
M  V30 34 O -1.3019 -7.5168 0.0 0
M  V30 END ATOM
M  V30 BEGIN BOND
M  V30 1 1 1 2
M  V30 2 2 2 3
M  V30 3 1 2 4
M  V30 4 1 3 5
M  V30 5 1 3 6
M  V30 6 2 4 7
M  V30 7 2 5 8
M  V30 8 1 5 9
M  V30 9 2 6 10
M  V30 10 1 6 11
M  V30 11 1 9 12
M  V30 12 1 9 13
M  V30 13 1 9 14
M  V30 14 1 10 15
M  V30 15 2 11 16
M  V30 16 1 11 17
M  V30 17 1 16 18
M  V30 18 2 17 19
M  V30 19 1 17 20
M  V30 20 2 18 21
M  V30 21 1 18 22
M  V30 22 1 20 23
M  V30 23 1 21 24
M  V30 24 2 22 25
M  V30 25 2 23 26
M  V30 26 1 23 27
M  V30 27 2 24 28
M  V30 28 1 26 29
M  V30 29 2 27 30
M  V30 30 1 29 31
M  V30 31 2 29 32
M  V30 32 2 31 33
M  V30 33 1 31 34
M  V30 34 1 7 8
M  V30 35 1 15 16
M  V30 36 1 25 28
M  V30 37 1 30 32
M  V30 END BOND
M  V30 END CTAB
M  END
>  <Molecule ChEMBL ID>
CHEMBL4452409

>  <Smiles>
O=C(O)c1cccc(NC(=O)c2c(-c3c(Cl)cccc3C(F)(F)F)noc2-c2ccccc2)c1

>  <IC50_nM>
50000

>  <Assay Description>
Inverse agonist activity at His6-tagged PPARgamma LBD (unknown origin) assessed as inhibition of rosiglitazone-induced N-terminal biotinylated co-activator SRC1 box2 peptide recruitment measured after 30 mins by TR-FRET assay

$$$$
CHEMBL465132
Actelion Java MolfileCreator 2.0

  0  0  0  0  0  0              0 V3000
M  V30 BEGIN CTAB
M  V30 COUNTS 32 34 0 0 0
M  V30 BEGIN ATOM
M  V30 1 S 5.1961 -0.75 0.0 0
M  V30 2 O 4.4461 -2.049 0.0 0
M  V30 3 O 5.9461 -2.049 0.0 0
M  V30 4 N 3.8971 0.0 0.0 0
M  V30 5 C 6.4952 0.0 0.0 0
M  V30 6 C 2.598 -0.75 0.0 0
M  V30 7 C 7.7942 -0.75 0.0 0
M  V30 8 C 6.4952 1.5 0.0 0
M  V30 9 S 2.598 -2.25 0.0 0
M  V30 10 N 1.299 0.0 0.0 0
M  V30 11 C 9.0932 0.0 0.0 0
M  V30 12 C 7.7942 2.25 0.0 0
M  V30 13 C 0.0 -0.75 0.0 0
M  V30 14 C 9.0932 1.5 0.0 0
M  V30 15 C -1.299 0.0 0.0 0
M  V30 16 C 0.0 -2.25 0.0 0
M  V30 17 C 10.3923 2.25 0.0 0
M  V30 18 C -2.598 -0.75 0.0 0
M  V30 19 C -1.299 -3.0 0.0 0
M  V30 20 C 11.6913 1.5 0.0 0
M  V30 21 C -2.598 -2.25 0.0 0
M  V30 22 N 12.9904 2.25 0.0 0
M  V30 23 C -3.8971 -3.0 0.0 0
M  V30 24 S 14.2894 1.5 0.0 0
M  V30 25 O 13.5394 0.201 0.0 0
M  V30 26 O 15.0394 0.201 0.0 0
M  V30 27 C 15.5884 2.25 0.0 0
M  V30 28 C 16.8875 1.5 0.0 0
M  V30 29 C 15.5884 3.75 0.0 0
M  V30 30 C 18.1865 2.25 0.0 0
M  V30 31 C 16.8875 4.5 0.0 0
M  V30 32 C 18.1865 3.75 0.0 0
M  V30 END ATOM
M  V30 BEGIN BOND
M  V30 1 2 1 2
M  V30 2 2 1 3
M  V30 3 1 1 4
M  V30 4 1 1 5
M  V30 5 1 4 6
M  V30 6 2 5 7
M  V30 7 1 5 8
M  V30 8 2 6 9
M  V30 9 1 6 10
M  V30 10 1 7 11
M  V30 11 2 8 12
M  V30 12 1 10 13
M  V30 13 2 11 14
M  V30 14 2 13 15
M  V30 15 1 13 16
M  V30 16 1 14 17
M  V30 17 1 15 18
M  V30 18 2 16 19
M  V30 19 1 17 20
M  V30 20 2 18 21
M  V30 21 1 20 22
M  V30 22 1 21 23
M  V30 23 1 22 24
M  V30 24 2 24 25
M  V30 25 2 24 26
M  V30 26 1 24 27
M  V30 27 2 27 28
M  V30 28 1 27 29
M  V30 29 1 28 30
M  V30 30 2 29 31
M  V30 31 2 30 32
M  V30 32 1 12 14
M  V30 33 1 19 21
M  V30 34 1 31 32
M  V30 END BOND
M  V30 END CTAB
M  END
>  <Molecule ChEMBL ID>
CHEMBL465132

>  <Smiles>
Cc1ccc(NC(=S)NS(=O)(=O)c2ccc(CCNS(=O)(=O)c3ccccc3)cc2)cc1

>  <IC50_nM>
50000

>  <Assay Description>
Displacement of fluormone-PPARgamma green from GST-tagged PPARgamma-LBD (unknown origin) by fluorescence polarization assay

$$$$
CHEMBL4436630
Actelion Java MolfileCreator 2.0

  0  0  0  0  0  0              0 V3000
M  V30 BEGIN CTAB
M  V30 COUNTS 35 38 0 0 0
M  V30 BEGIN ATOM
M  V30 1 Cl 3.1126 -2.68 0.0 0
M  V30 2 C 4.4743 -3.0877 0.0 0
M  V30 3 C 5.5914 -2.0818 0.0 0
M  V30 4 C 4.7868 -4.5581 0.0 0
M  V30 5 C 7.0211 -2.5464 0.0 0
M  V30 6 C 5.2789 -0.6114 0.0 0
M  V30 7 C 6.2165 -5.0227 0.0 0
M  V30 8 C 7.3337 -4.0168 0.0 0
M  V30 9 C 8.1383 -1.5405 0.0 0
M  V30 10 N 6.2848 0.5057 0.0 0
M  V30 11 C 3.9056 0.0 0.0 0
M  V30 12 F 9.1442 -2.6576 0.0 0
M  V30 13 F 9.2554 -0.5346 0.0 0
M  V30 14 F 7.1324 -0.4233 0.0 0
M  V30 15 O 5.5331 1.8075 0.0 0
M  V30 16 C 4.0627 1.495 0.0 0
M  V30 17 C 2.6037 -0.7516 0.0 0
M  V30 18 C 2.9456 2.5009 0.0 0
M  V30 19 O 1.3018 0.0 0.0 0
M  V30 20 N 2.5697 -2.2265 0.0 0
M  V30 21 C 3.2581 3.9713 0.0 0
M  V30 22 C 1.5159 2.0363 0.0 0
M  V30 23 C 1.3018 -3.0065 0.0 0
M  V30 24 C 2.141 4.9772 0.0 0
M  V30 25 C 0.3987 3.0422 0.0 0
M  V30 26 C 1.3018 -4.5098 0.0 0
M  V30 27 C 0.0 -2.2549 0.0 0
M  V30 28 C 0.7113 4.5127 0.0 0
M  V30 29 C 0.0 -5.2614 0.0 0
M  V30 30 C -1.3018 -3.0065 0.0 0
M  V30 31 F 0.0 -6.7647 0.0 0
M  V30 32 C -1.3018 -4.5098 0.0 0
M  V30 33 C -2.6037 -5.2614 0.0 0
M  V30 34 O -2.6037 -6.7647 0.0 0
M  V30 35 O -3.9056 -4.5098 0.0 0
M  V30 END ATOM
M  V30 BEGIN BOND
M  V30 1 1 1 2
M  V30 2 2 2 3
M  V30 3 1 2 4
M  V30 4 1 3 5
M  V30 5 1 3 6
M  V30 6 2 4 7
M  V30 7 2 5 8
M  V30 8 1 5 9
M  V30 9 2 6 10
M  V30 10 1 6 11
M  V30 11 1 9 12
M  V30 12 1 9 13
M  V30 13 1 9 14
M  V30 14 1 10 15
M  V30 15 2 11 16
M  V30 16 1 11 17
M  V30 17 1 16 18
M  V30 18 2 17 19
M  V30 19 1 17 20
M  V30 20 2 18 21
M  V30 21 1 18 22
M  V30 22 1 20 23
M  V30 23 1 21 24
M  V30 24 2 22 25
M  V30 25 2 23 26
M  V30 26 1 23 27
M  V30 27 2 24 28
M  V30 28 1 26 29
M  V30 29 2 27 30
M  V30 30 1 29 31
M  V30 31 2 29 32
M  V30 32 1 32 33
M  V30 33 2 33 34
M  V30 34 1 33 35
M  V30 35 1 7 8
M  V30 36 1 15 16
M  V30 37 1 25 28
M  V30 38 1 30 32
M  V30 END BOND
M  V30 END CTAB
M  END
>  <Molecule ChEMBL ID>
CHEMBL4436630

>  <Smiles>
O=C(O)c1ccc(NC(=O)c2c(-c3c(Cl)cccc3C(F)(F)F)noc2-c2ccccc2)cc1F

>  <IC50_nM>
50000

>  <Assay Description>
Inverse agonist activity at His6-tagged PPARgamma LBD (unknown origin) assessed as inhibition of rosiglitazone-induced N-terminal biotinylated co-activator SRC1 box2 peptide recruitment measured after 30 mins by TR-FRET assay

$$$$
CHEMBL115604
Actelion Java MolfileCreator 2.0

  0  0  0  0  0  0              0 V3000
M  V30 BEGIN CTAB
M  V30 COUNTS 29 30 0 0 0
M  V30 BEGIN ATOM
M  V30 1 F 9.8432 -1.7009 0.0 0
M  V30 2 C 9.0932 -3.0 0.0 0
M  V30 3 F 10.3923 -3.75 0.0 0
M  V30 4 F 8.3432 -4.299 0.0 0
M  V30 5 C 7.7942 -2.2499 0.0 0
M  V30 6 C 7.7942 -0.75 0.0 0
M  V30 7 C 6.4951 -2.9999 0.0 0
M  V30 8 C 6.4951 0.0 0.0 0
M  V30 9 C 5.1961 -2.25 0.0 0
M  V30 10 C 5.1961 -0.75 0.0 0
M  V30 11 C 3.8971 0.0 0.0 0
M  V30 12 N 2.598 -0.75 0.0 0
M  V30 13 C 1.299 0.0 0.0 0
M  V30 14 O 1.299 1.5 0.0 0
M  V30 15 C 0.0 -0.75 0.0 0
M  V30 16 C -1.299 0.0 0.0 0
M  V30 17 C 0.0 -2.2499 0.0 0
M  V30 18 O -1.299 1.5 0.0 0
M  V30 19 C -2.598 -0.7499 0.0 0
M  V30 20 C -1.299 -2.9999 0.0 0
M  V30 21 C -2.598 2.25 0.0 0
M  V30 22 C -2.598 -2.2499 0.0 0
M  V30 23 C -1.299 -4.4999 0.0 0
M  V30 24 C 0.0 -5.2499 0.0 0 CFG=2
M  V30 25 C 1.299 -4.5 0.0 0
M  V30 26 C 0.0 -6.75 0.0 0
M  V30 27 O 2.598 -5.25 0.0 0
M  V30 28 O 1.299 -3.0 0.0 0
M  V30 29 C 1.299 -7.5 0.0 0
M  V30 END ATOM
M  V30 BEGIN BOND
M  V30 1 1 1 2
M  V30 2 1 2 3
M  V30 3 1 2 4
M  V30 4 1 2 5
M  V30 5 2 5 6
M  V30 6 1 5 7
M  V30 7 1 6 8
M  V30 8 2 7 9
M  V30 9 2 8 10
M  V30 10 1 10 11
M  V30 11 1 11 12
M  V30 12 1 12 13
M  V30 13 2 13 14
M  V30 14 1 13 15
M  V30 15 2 15 16
M  V30 16 1 15 17
M  V30 17 1 16 18
M  V30 18 1 16 19
M  V30 19 2 17 20
M  V30 20 1 18 21
M  V30 21 2 19 22
M  V30 22 1 20 23
M  V30 23 1 24 23 CFG=3
M  V30 24 1 24 25
M  V30 25 1 24 26
M  V30 26 2 25 27
M  V30 27 1 25 28
M  V30 28 1 26 29
M  V30 29 1 9 10
M  V30 30 1 20 22
M  V30 END BOND
M  V30 BEGIN COLLECTION
M  V30 MDLV30/STEABS ATOMS=(1 24)
M  V30 END COLLECTION
M  V30 END CTAB
M  END
>  <Molecule ChEMBL ID>
CHEMBL115604

>  <Smiles>
CC[C@H](Cc1ccc(OC)c(C(=O)NCc2ccc(C(F)(F)F)cc2)c1)C(=O)O

>  <IC50_nM>
50000

>  <Assay Description>
Binding affinity of compound to human peroxisome proliferator-activated receptor gamma was determined by competitive binding assay

$$$$
CHEMBL2447934
Actelion Java MolfileCreator 2.0

  0  0  0  0  0  0              0 V3000
M  V30 BEGIN CTAB
M  V30 COUNTS 29 32 0 0 0
M  V30 BEGIN ATOM
M  V30 1 O 4.3301 3.0 0.0 0
M  V30 2 N 3.4641 2.5 0.0 0 CHG=1
M  V30 3 O 2.598 3.0 0.0 0 CHG=-1
M  V30 4 C 3.4641 1.5 0.0 0
M  V30 5 C 2.598 1.0 0.0 0
M  V30 6 C 4.3301 1.0 0.0 0
M  V30 7 C 2.598 0.0 0.0 0
M  V30 8 C 4.3301 0.0 0.0 0
M  V30 9 C 1.732 -0.5 0.0 0
M  V30 10 C 3.4641 -0.4999 0.0 0
M  V30 11 O 1.732 -1.5 0.0 0
M  V30 12 N 0.866 0.0 0.0 0
M  V30 13 C 0.0 -0.5 0.0 0
M  V30 14 C -0.866 0.0 0.0 0
M  V30 15 C 0.0 -1.5 0.0 0
M  V30 16 C -1.732 -0.4999 0.0 0
M  V30 17 C -0.866 -1.9999 0.0 0
M  V30 18 N -2.6831 -0.1909 0.0 0
M  V30 19 C -1.732 -1.4999 0.0 0
M  V30 20 C -3.2708 -0.9999 0.0 0
M  V30 21 O -2.6831 -1.809 0.0 0
M  V30 22 C -4.2708 -0.9999 0.0 0
M  V30 23 C -4.7708 -0.1339 0.0 0
M  V30 24 C -4.7708 -1.866 0.0 0
M  V30 25 C -5.7708 -0.1339 0.0 0
M  V30 26 C -5.7708 -1.866 0.0 0
M  V30 27 C -6.2708 -0.9999 0.0 0
M  V30 28 C -7.2708 -0.9999 0.0 0
M  V30 29 C -7.7708 -1.866 0.0 0
M  V30 END ATOM
M  V30 BEGIN BOND
M  V30 1 2 1 2
M  V30 2 1 2 3
M  V30 3 1 2 4
M  V30 4 2 4 5
M  V30 5 1 4 6
M  V30 6 1 5 7
M  V30 7 2 6 8
M  V30 8 1 7 9
M  V30 9 2 7 10
M  V30 10 2 9 11
M  V30 11 1 9 12
M  V30 12 1 12 13
M  V30 13 2 13 14
M  V30 14 1 13 15
M  V30 15 1 14 16
M  V30 16 2 15 17
M  V30 17 1 16 18
M  V30 18 2 16 19
M  V30 19 2 18 20
M  V30 20 1 19 21
M  V30 21 1 20 22
M  V30 22 2 22 23
M  V30 23 1 22 24
M  V30 24 1 23 25
M  V30 25 2 24 26
M  V30 26 2 25 27
M  V30 27 1 27 28
M  V30 28 1 28 29
M  V30 29 1 8 10
M  V30 30 1 17 19
M  V30 31 1 20 21
M  V30 32 1 26 27
M  V30 END BOND
M  V30 END CTAB
M  END
>  <Molecule ChEMBL ID>
CHEMBL2447934

>  <Smiles>
CCc1ccc(-c2nc3cc(NC(=O)c4cccc([N+](=O)[O-])c4)ccc3o2)cc1

>  <IC50_nM>
50000

>  <Assay Description>
Inverse agonist activity at PPARgamma in human RT112/84-FABP4 cells assessed as reduction in PPARgamma transactivation measured by Nanoluciferase reporter gene assay

$$$$
CHEMBL4518713
Actelion Java MolfileCreator 2.0

  0  0  0  0  0  0              0 V3000
M  V30 BEGIN CTAB
M  V30 COUNTS 29 31 0 0 0
M  V30 BEGIN ATOM
M  V30 1 Cl 3.1141 -2.6813 0.0 0
M  V30 2 C 4.4765 -3.0892 0.0 0
M  V30 3 C 5.5942 -2.0828 0.0 0
M  V30 4 C 4.7892 -4.5604 0.0 0
M  V30 5 C 7.0246 -2.5476 0.0 0
M  V30 6 C 5.2815 -0.6117 0.0 0
M  V30 7 C 6.2196 -5.0251 0.0 0
M  V30 8 C 7.3373 -4.0188 0.0 0
M  V30 9 C 8.1423 -1.5412 0.0 0
M  V30 10 N 6.2879 0.5059 0.0 0
M  V30 11 C 3.9075 0.0 0.0 0
M  V30 12 F 9.1487 -2.6589 0.0 0
M  V30 13 F 9.26 -0.5348 0.0 0
M  V30 14 F 7.1359 -0.4235 0.0 0
M  V30 15 O 5.5359 1.8084 0.0 0
M  V30 16 C 4.0647 1.4957 0.0 0
M  V30 17 C 2.605 -0.752 0.0 0
M  V30 18 C 2.947 2.5021 0.0 0
M  V30 19 O 1.3025 0.0 0.0 0
M  V30 20 N 2.571 -2.2276 0.0 0
M  V30 21 C 1.3025 -3.008 0.0 0
M  V30 22 C 1.3025 -4.512 0.0 0
M  V30 23 C 0.0 -2.256 0.0 0
M  V30 24 C 0.0 -5.264 0.0 0
M  V30 25 C -1.3025 -3.008 0.0 0
M  V30 26 C -1.3025 -4.512 0.0 0
M  V30 27 C -2.605 -5.264 0.0 0
M  V30 28 O -2.605 -6.768 0.0 0
M  V30 29 O -3.9075 -4.512 0.0 0
M  V30 END ATOM
M  V30 BEGIN BOND
M  V30 1 1 1 2
M  V30 2 2 2 3
M  V30 3 1 2 4
M  V30 4 1 3 5
M  V30 5 1 3 6
M  V30 6 2 4 7
M  V30 7 2 5 8
M  V30 8 1 5 9
M  V30 9 2 6 10
M  V30 10 1 6 11
M  V30 11 1 9 12
M  V30 12 1 9 13
M  V30 13 1 9 14
M  V30 14 1 10 15
M  V30 15 2 11 16
M  V30 16 1 11 17
M  V30 17 1 16 18
M  V30 18 2 17 19
M  V30 19 1 17 20
M  V30 20 1 20 21
M  V30 21 2 21 22
M  V30 22 1 21 23
M  V30 23 1 22 24
M  V30 24 2 23 25
M  V30 25 2 24 26
M  V30 26 1 26 27
M  V30 27 2 27 28
M  V30 28 1 27 29
M  V30 29 1 7 8
M  V30 30 1 15 16
M  V30 31 1 25 26
M  V30 END BOND
M  V30 END CTAB
M  END
>  <Molecule ChEMBL ID>
CHEMBL4518713

>  <Smiles>
Cc1onc(-c2c(Cl)cccc2C(F)(F)F)c1C(=O)Nc1ccc(C(=O)O)cc1

>  <IC50_nM>
50000

>  <Assay Description>
Inverse agonist activity at His6-tagged PPARgamma LBD (unknown origin) assessed as inhibition of rosiglitazone-induced N-terminal biotinylated co-activator SRC1 box2 peptide recruitment measured after 30 mins by TR-FRET assay

$$$$
CHEMBL4435027
Actelion Java MolfileCreator 2.0

  0  0  0  0  0  0              0 V3000
M  V30 BEGIN CTAB
M  V30 COUNTS 25 27 0 0 0
M  V30 BEGIN ATOM
M  V30 1 Cl -0.1061 -1.3614 0.0 0
M  V30 2 C 0.214 -2.7885 0.0 0
M  V30 3 C 1.644 -3.2531 0.0 0
M  V30 4 C -0.9032 -3.7946 0.0 0
M  V30 5 C 1.9566 -4.7238 0.0 0
M  V30 6 C 2.7614 -2.2471 0.0 0
M  V30 7 C -0.5906 -5.2653 0.0 0
M  V30 8 C 0.8392 -5.7299 0.0 0
M  V30 9 C 3.3866 -5.1885 0.0 0
M  V30 10 N 4.2321 -2.5597 0.0 0
M  V30 11 C 2.6042 -0.7517 0.0 0
M  V30 12 F 2.922 -6.6184 0.0 0
M  V30 13 F 4.8166 -5.6531 0.0 0
M  V30 14 F 3.8512 -3.7585 0.0 0
M  V30 15 O 4.9839 -1.2575 0.0 0
M  V30 16 C 3.9778 -0.1402 0.0 0
M  V30 17 C 1.3021 0.0 0.0 0
M  V30 18 C 4.2904 1.3304 0.0 0
M  V30 19 O 1.3021 1.5035 0.0 0
M  V30 20 O 0.0151 -0.6644 0.0 0
M  V30 21 C 5.7204 1.7951 0.0 0
M  V30 22 C 3.173 2.3365 0.0 0
M  V30 23 C 6.033 3.2658 0.0 0
M  V30 24 C 3.4856 3.8072 0.0 0
M  V30 25 C 4.9156 4.2718 0.0 0
M  V30 END ATOM
M  V30 BEGIN BOND
M  V30 1 1 1 2
M  V30 2 2 2 3
M  V30 3 1 2 4
M  V30 4 1 3 5
M  V30 5 1 3 6
M  V30 6 2 4 7
M  V30 7 2 5 8
M  V30 8 1 5 9
M  V30 9 2 6 10
M  V30 10 1 6 11
M  V30 11 1 9 12
M  V30 12 1 9 13
M  V30 13 1 9 14
M  V30 14 1 10 15
M  V30 15 2 11 16
M  V30 16 1 11 17
M  V30 17 1 16 18
M  V30 18 2 17 19
M  V30 19 1 17 20
M  V30 20 2 18 21
M  V30 21 1 18 22
M  V30 22 1 21 23
M  V30 23 2 22 24
M  V30 24 2 23 25
M  V30 25 1 7 8
M  V30 26 1 15 16
M  V30 27 1 24 25
M  V30 END BOND
M  V30 END CTAB
M  END
>  <Molecule ChEMBL ID>
CHEMBL4435027

>  <Smiles>
O=C(O)c1c(-c2c(Cl)cccc2C(F)(F)F)noc1-c1ccccc1

>  <IC50_nM>
50000

>  <Assay Description>
Inverse agonist activity at His6-tagged PPARgamma LBD (unknown origin) assessed as inhibition of rosiglitazone-induced N-terminal biotinylated co-activator SRC1 box2 peptide recruitment measured after 30 mins by TR-FRET assay

$$$$
CHEMBL981
Actelion Java MolfileCreator 2.0

  0  0  0  0  0  0              0 V3000
M  V30 BEGIN CTAB
M  V30 COUNTS 22 23 0 0 0
M  V30 BEGIN ATOM
M  V30 1 Cl 9.0932 -9.0 0.0 0
M  V30 2 C 9.0932 -7.5 0.0 0
M  V30 3 C 10.3923 -6.75 0.0 0
M  V30 4 C 7.7942 -6.75 0.0 0
M  V30 5 C 10.3923 -5.25 0.0 0
M  V30 6 C 7.7942 -5.25 0.0 0
M  V30 7 C 9.0932 -4.5 0.0 0
M  V30 8 C 9.0932 -3.0 0.0 0
M  V30 9 O 10.3923 -2.25 0.0 0
M  V30 10 C 7.7942 -2.25 0.0 0
M  V30 11 C 7.7942 -0.75 0.0 0
M  V30 12 C 6.4952 -3.0 0.0 0
M  V30 13 C 6.4952 0.0 0.0 0
M  V30 14 C 5.1961 -2.25 0.0 0
M  V30 15 C 5.1961 -0.75 0.0 0
M  V30 16 O 3.8971 0.0 0.0 0
M  V30 17 C 2.598 -0.75 0.0 0
M  V30 18 C 1.299 0.0 0.0 0
M  V30 19 C 1.848 -2.049 0.0 0
M  V30 20 C 3.348 -2.049 0.0 0
M  V30 21 O 1.299 1.5 0.0 0
M  V30 22 O 0.0 -0.75 0.0 0
M  V30 END ATOM
M  V30 BEGIN BOND
M  V30 1 1 1 2
M  V30 2 2 2 3
M  V30 3 1 2 4
M  V30 4 1 3 5
M  V30 5 2 4 6
M  V30 6 2 5 7
M  V30 7 1 7 8
M  V30 8 2 8 9
M  V30 9 1 8 10
M  V30 10 2 10 11
M  V30 11 1 10 12
M  V30 12 1 11 13
M  V30 13 2 12 14
M  V30 14 2 13 15
M  V30 15 1 15 16
M  V30 16 1 16 17
M  V30 17 1 17 18
M  V30 18 1 17 19
M  V30 19 1 17 20
M  V30 20 2 18 21
M  V30 21 1 18 22
M  V30 22 1 6 7
M  V30 23 1 14 15
M  V30 END BOND
M  V30 END CTAB
M  END
>  <Molecule ChEMBL ID>
CHEMBL981

>  <Smiles>
CC(C)(Oc1ccc(C(=O)c2ccc(Cl)cc2)cc1)C(=O)O

>  <IC50_nM>
50000

>  <Assay Description>
Inhibition of human Peroxisome proliferator activated receptor gamma binding

$$$$
CHEMBL5169731
Actelion Java MolfileCreator 2.0

  0  0  0  0  0  0              0 V3000
M  V30 BEGIN CTAB
M  V30 COUNTS 31 34 0 0 0
M  V30 BEGIN ATOM
M  V30 1 Cl 2.598 2.25 0.0 0
M  V30 2 C 3.8971 1.5 0.0 0
M  V30 3 C 3.8971 0.0 0.0 0
M  V30 4 C 5.1961 2.25 0.0 0
M  V30 5 S 2.598 -0.75 0.0 0
M  V30 6 C 5.1961 -0.75 0.0 0
M  V30 7 C 6.4951 1.5 0.0 0
M  V30 8 O 1.848 -2.049 0.0 0
M  V30 9 O 3.348 -2.049 0.0 0
M  V30 10 N 1.299 0.0 0.0 0
M  V30 11 C 6.4951 0.0 0.0 0
M  V30 12 C 0.0 -0.75 0.0 0
M  V30 13 N 7.7942 -0.75 0.0 0 CHG=1
M  V30 14 C -1.299 0.0 0.0 0
M  V30 15 C 0.0 -2.25 0.0 0
M  V30 16 O 7.7942 -2.25 0.0 0
M  V30 17 O 9.0932 0.0 0.0 0 CHG=-1
M  V30 18 C -2.598 -0.75 0.0 0
M  V30 19 C -1.299 -3.0 0.0 0
M  V30 20 N -4.0246 -0.2864 0.0 0
M  V30 21 C -2.598 -2.25 0.0 0
M  V30 22 C -4.9063 -1.5 0.0 0
M  V30 23 O -4.0246 -2.7135 0.0 0
M  V30 24 C -6.4063 -1.5 0.0 0
M  V30 25 C -7.1563 -0.2009 0.0 0
M  V30 26 C -7.1563 -2.799 0.0 0
M  V30 27 C -8.6563 -0.2009 0.0 0
M  V30 28 C -8.6563 -2.799 0.0 0
M  V30 29 C -9.4063 -1.5 0.0 0
M  V30 30 C -10.9063 -1.5 0.0 0
M  V30 31 C -11.6563 -2.799 0.0 0
M  V30 END ATOM
M  V30 BEGIN BOND
M  V30 1 1 1 2
M  V30 2 2 2 3
M  V30 3 1 2 4
M  V30 4 1 3 5
M  V30 5 1 3 6
M  V30 6 2 4 7
M  V30 7 2 5 8
M  V30 8 2 5 9
M  V30 9 1 5 10
M  V30 10 2 6 11
M  V30 11 1 10 12
M  V30 12 1 11 13
M  V30 13 2 12 14
M  V30 14 1 12 15
M  V30 15 2 13 16
M  V30 16 1 13 17
M  V30 17 1 14 18
M  V30 18 2 15 19
M  V30 19 1 18 20
M  V30 20 2 18 21
M  V30 21 2 20 22
M  V30 22 1 21 23
M  V30 23 1 22 24
M  V30 24 2 24 25
M  V30 25 1 24 26
M  V30 26 1 25 27
M  V30 27 2 26 28
M  V30 28 2 27 29
M  V30 29 1 29 30
M  V30 30 1 30 31
M  V30 31 1 7 11
M  V30 32 1 19 21
M  V30 33 1 22 23
M  V30 34 1 28 29
M  V30 END BOND
M  V30 END CTAB
M  END
>  <Molecule ChEMBL ID>
CHEMBL5169731

>  <Smiles>
CCc1ccc(-c2nc3cc(NS(=O)(=O)c4cc([N+](=O)[O-])ccc4Cl)ccc3o2)cc1

>  <IC50_nM>
50000

>  <Assay Description>
Inverse agonist activity at PPARgamma in human RT112/84-FABP4 cells assessed as reduction in PPARgamma transactivation measured by Nanoluciferase reporter gene assay

$$$$
CHEMBL4284250
Actelion Java MolfileCreator 2.0

  0  0  0  0  0  0              0 V3000
M  V30 BEGIN CTAB
M  V30 COUNTS 26 28 0 0 0
M  V30 BEGIN ATOM
M  V30 1 S 5.2531 -3.5877 0.0 0
M  V30 2 C 5.5621 -4.5388 0.0 0
M  V30 3 C 6.0621 -3.0 0.0 0
M  V30 4 O 4.9743 -5.3478 0.0 0
M  V30 5 N 6.5621 -4.5388 0.0 0
M  V30 6 C 6.8711 -3.5877 0.0 0
M  V30 7 C 6.0621 -1.9999 0.0 0
M  V30 8 O 7.8222 -3.2787 0.0 0
M  V30 9 C 5.1961 -1.4999 0.0 0
M  V30 10 C 5.1961 -0.5 0.0 0
M  V30 11 C 4.3301 -1.9999 0.0 0
M  V30 12 C 4.3301 0.0 0.0 0
M  V30 13 C 3.4641 -1.5 0.0 0
M  V30 14 C 3.4641 -0.5 0.0 0
M  V30 15 O 2.598 0.0 0.0 0
M  V30 16 C 1.732 -0.5 0.0 0
M  V30 17 C 0.866 0.0 0.0 0 CFG=2
M  V30 18 O 0.866 1.0 0.0 0
M  V30 19 C 0.0 -0.5 0.0 0
M  V30 20 N -0.866 0.0 0.0 0
M  V30 21 C 0.0 -1.4999 0.0 0
M  V30 22 C -1.732 -0.4999 0.0 0
M  V30 23 C -0.866 -1.9999 0.0 0
M  V30 24 C -1.732 -1.4999 0.0 0
M  V30 25 C -2.598 -1.9999 0.0 0
M  V30 26 C -2.598 -2.9999 0.0 0
M  V30 END ATOM
M  V30 BEGIN BOND
M  V30 1 1 1 2
M  V30 2 1 1 3
M  V30 3 2 2 4
M  V30 4 1 2 5
M  V30 5 1 3 6
M  V30 6 1 3 7
M  V30 7 2 6 8
M  V30 8 1 7 9
M  V30 9 2 9 10
M  V30 10 1 9 11
M  V30 11 1 10 12
M  V30 12 2 11 13
M  V30 13 2 12 14
M  V30 14 1 14 15
M  V30 15 1 15 16
M  V30 16 1 16 17
M  V30 17 1 17 18 CFG=1
M  V30 18 1 17 19
M  V30 19 2 19 20
M  V30 20 1 19 21
M  V30 21 1 20 22
M  V30 22 2 21 23
M  V30 23 2 22 24
M  V30 24 1 24 25
M  V30 25 1 25 26
M  V30 26 1 5 6
M  V30 27 1 13 14
M  V30 28 1 23 24
M  V30 END BOND
M  V30 BEGIN COLLECTION
M  V30 MDLV30/STEABS ATOMS=(1 17)
M  V30 END COLLECTION
M  V30 END CTAB
M  END
>  <Molecule ChEMBL ID>
CHEMBL4284250

>  <Smiles>
CCc1ccc([C@@H](O)COc2ccc(CC3SC(=O)NC3=O)cc2)nc1

>  <IC50_nM>
50140

>  <Assay Description>
Competitive displacement of fluorescently labelled PPAR tracer ligand from GST-tagged human PPARgamma ligand binding domain after 1 hr in dark by TR-FRET competitive binding assay

$$$$
CHEMBL477940
Actelion Java MolfileCreator 2.0

  0  0  0  0  0  0              0 V3000
M  V30 BEGIN CTAB
M  V30 COUNTS 27 29 0 0 0
M  V30 BEGIN ATOM
M  V30 1 O 5.1961 -0.75 0.0 0
M  V30 2 C 3.8971 0.0 0.0 0
M  V30 3 O 3.8971 1.5 0.0 0
M  V30 4 C 2.598 -0.75 0.0 0 CFG=1
M  V30 5 N 2.598 -2.25 0.0 0
M  V30 6 C 1.299 0.0 0.0 0
M  V30 7 C 1.3845 -3.1316 0.0 0
M  V30 8 C 3.8116 -3.1316 0.0 0
M  V30 9 C 0.0 -0.75 0.0 0
M  V30 10 C 1.848 -4.5582 0.0 0
M  V30 11 C 3.348 -4.5582 0.0 0
M  V30 12 C -1.299 0.0 0.0 0
M  V30 13 C 0.0 -2.2499 0.0 0
M  V30 14 C -2.598 -0.7499 0.0 0
M  V30 15 C -1.299 -2.9999 0.0 0
M  V30 16 C -2.598 -2.2499 0.0 0
M  V30 17 C -3.8971 -2.9999 0.0 0
M  V30 18 C -5.1961 -3.7499 0.0 0
M  V30 19 C -6.4951 -4.4999 0.0 0
M  V30 20 N -6.4951 -5.9999 0.0 0
M  V30 21 C -7.7942 -6.7499 0.0 0
M  V30 22 C -5.1961 -6.75 0.0 0
M  V30 23 N -9.0932 -5.9999 0.0 0
M  V30 24 C -7.7942 -8.2499 0.0 0
M  V30 25 C -10.3923 -6.7499 0.0 0
M  V30 26 C -9.0932 -8.9999 0.0 0
M  V30 27 C -10.3923 -8.2499 0.0 0
M  V30 END ATOM
M  V30 BEGIN BOND
M  V30 1 2 1 2
M  V30 2 1 2 3
M  V30 3 1 2 4
M  V30 4 1 4 5 CFG=1
M  V30 5 1 4 6
M  V30 6 1 5 7
M  V30 7 1 5 8
M  V30 8 1 6 9
M  V30 9 2 7 10
M  V30 10 2 8 11
M  V30 11 2 9 12
M  V30 12 1 9 13
M  V30 13 1 12 14
M  V30 14 2 13 15
M  V30 15 2 14 16
M  V30 16 1 16 17
M  V30 17 3 17 18
M  V30 18 1 18 19
M  V30 19 1 19 20
M  V30 20 1 20 21
M  V30 21 1 20 22
M  V30 22 2 21 23
M  V30 23 1 21 24
M  V30 24 1 23 25
M  V30 25 2 24 26
M  V30 26 2 25 27
M  V30 27 1 10 11
M  V30 28 1 15 16
M  V30 29 1 26 27
M  V30 END BOND
M  V30 BEGIN COLLECTION
M  V30 MDLV30/STERAC1 ATOMS=(1 4)
M  V30 END COLLECTION
M  V30 END CTAB
M  END
>  <Molecule ChEMBL ID>
CHEMBL477940

>  <Smiles>
CN(CC#Cc1ccc(CC(C(=O)O)n2cccc2)cc1)c1ccccn1

>  <IC50_nM>
53000

>  <Assay Description>
Displacement of [3H]darglitazone from human PPARgamma by scintillation proximity assay

$$$$
CHEMBL295416
Actelion Java MolfileCreator 2.0

  0  0  0  0  0  0              0 V3000
M  V30 BEGIN CTAB
M  V30 COUNTS 21 22 0 0 0
M  V30 BEGIN ATOM
M  V30 1 Cl 6.0621 0.0 0.0 0
M  V30 2 C 5.1961 -0.5 0.0 0
M  V30 3 N 4.3301 0.0 0.0 0
M  V30 4 C 5.1961 -1.4999 0.0 0
M  V30 5 C 3.4641 -0.5 0.0 0
M  V30 6 C 4.3301 -1.9999 0.0 0
M  V30 7 S 2.598 0.0 0.0 0
M  V30 8 N 3.4641 -1.4999 0.0 0
M  V30 9 N 4.3301 -3.0 0.0 0
M  V30 10 C 1.732 -0.5 0.0 0
M  V30 11 C 5.1961 -3.5 0.0 0
M  V30 12 C 0.866 0.0 0.0 0
M  V30 13 C 5.1961 -4.5 0.0 0
M  V30 14 C 6.0621 -3.0 0.0 0
M  V30 15 O 0.866 1.0 0.0 0
M  V30 16 O 0.0 -0.5 0.0 0
M  V30 17 C 6.0621 -5.0 0.0 0
M  V30 18 C 4.3301 -4.9999 0.0 0
M  V30 19 C 6.9282 -3.5 0.0 0
M  V30 20 C 6.9282 -4.5 0.0 0
M  V30 21 C 6.0621 -6.0 0.0 0
M  V30 END ATOM
M  V30 BEGIN BOND
M  V30 1 1 1 2
M  V30 2 2 2 3
M  V30 3 1 2 4
M  V30 4 1 3 5
M  V30 5 2 4 6
M  V30 6 1 5 7
M  V30 7 2 5 8
M  V30 8 1 6 9
M  V30 9 1 7 10
M  V30 10 1 9 11
M  V30 11 1 10 12
M  V30 12 2 11 13
M  V30 13 1 11 14
M  V30 14 2 12 15
M  V30 15 1 12 16
M  V30 16 1 13 17
M  V30 17 1 13 18
M  V30 18 2 14 19
M  V30 19 2 17 20
M  V30 20 1 17 21
M  V30 21 1 6 8
M  V30 22 1 19 20
M  V30 END BOND
M  V30 END CTAB
M  END
>  <Molecule ChEMBL ID>
CHEMBL295416

>  <Smiles>
Cc1cccc(Nc2cc(Cl)nc(SCC(=O)O)n2)c1C

>  <IC50_nM>
53700

>  <Assay Description>
Activation of human PPARgamma ligand binding domain expressed in COS7 cells by luciferase reporter gene assay

$$$$
CHEMBL518700
Actelion Java MolfileCreator 2.0

  0  0  0  0  0  0              0 V3000
M  V30 BEGIN CTAB
M  V30 COUNTS 26 28 0 0 0
M  V30 BEGIN ATOM
M  V30 1 O 6.1788 1.8452 0.0 0
M  V30 2 C 5.3128 1.3452 0.0 0
M  V30 3 O 4.3992 1.7519 0.0 0
M  V30 4 C 5.2082 0.3506 0.0 0
M  V30 5 C 3.6772 0.9181 0.0 0 CFG=1
M  V30 6 C 5.9514 -0.3184 0.0 0
M  V30 7 C 4.2301 0.1427 0.0 0 CFG=1
M  V30 8 C 2.8192 0.6168 0.0 0
M  V30 9 C 3.4641 -0.5 0.0 0 CFG=2
M  V30 10 C 1.8507 1.0088 0.0 0 CFG=1
M  V30 11 O 2.598 0.0 0.0 0
M  V30 12 C 3.2904 -1.4848 0.0 0
M  V30 13 C 1.3451 -0.0113 0.0 0 CFG=1
M  V30 14 C 1.4791 1.9371 0.0 0
M  V30 15 C 2.6122 1.0652 0.0 0
M  V30 16 C 2.1541 -1.4126 0.0 0 CFG=1
M  V30 17 O 2.2586 -0.418 0.0 0
M  V30 18 O 0.5178 0.5504 0.0 0
M  V30 19 C 0.676 -0.7544 0.0 0
M  V30 20 O 1.9305 1.5794 0.0 0
M  V30 21 C 3.4641 1.5 0.0 0
M  V30 22 C 1.176 -1.6205 0.0 0 CFG=2
M  V30 23 C 2.227 -2.4099 0.0 0
M  V30 24 C 4.348 0.9838 0.0 0
M  V30 25 C 3.4641 2.5 0.0 0
M  V30 26 O 0.7692 -2.534 0.0 0
M  V30 END ATOM
M  V30 BEGIN BOND
M  V30 1 2 1 2
M  V30 2 1 2 3
M  V30 3 1 2 4
M  V30 4 1 5 3 CFG=1
M  V30 5 2 4 6
M  V30 6 1 7 4 CFG=3
M  V30 7 1 5 8
M  V30 8 1 7 9
M  V30 9 1 8 10
M  V30 10 1 9 11 CFG=1
M  V30 11 1 9 12
M  V30 12 1 10 13
M  V30 13 1 10 14 CFG=1
M  V30 14 1 11 15
M  V30 15 1 12 16
M  V30 16 1 13 17
M  V30 17 1 13 18 CFG=1
M  V30 18 1 13 19
M  V30 19 2 15 20
M  V30 20 1 15 21
M  V30 21 1 16 22
M  V30 22 1 16 23 CFG=1
M  V30 23 1 21 24
M  V30 24 1 21 25
M  V30 25 1 22 26 CFG=1
M  V30 26 1 5 7
M  V30 27 1 16 17
M  V30 28 1 19 22
M  V30 END BOND
M  V30 BEGIN COLLECTION
M  V30 MDLV30/STEABS ATOMS=(7 5 7 9 10 13 16 22)
M  V30 END COLLECTION
M  V30 END CTAB
M  END
>  <Molecule ChEMBL ID>
CHEMBL518700

>  <Smiles>
C=C1C(=O)O[C@@H]2C[C@H](C)[C@@]3(O)C[C@H](O)[C@@](C)(C[C@@H](OC(=O)C(C)C)[C@@H]12)O3

>  <IC50_nM>
55000

>  <Assay Description>
Inhibition of fluormone binding to human PPARgamma LBD after 2 hrs by competitive fluorescence polarization assay

$$$$
CHEMBL2403501
Actelion Java MolfileCreator 2.0

  0  0  0  0  0  0              0 V3000
M  V30 BEGIN CTAB
M  V30 COUNTS 35 37 0 0 0
M  V30 BEGIN ATOM
M  V30 1 O 6.9282 -0.4999 0.0 0
M  V30 2 C 6.0621 0.0 0.0 0
M  V30 3 N 6.0621 1.0 0.0 0
M  V30 4 C 5.1961 -0.5 0.0 0
M  V30 5 C 6.9282 1.5 0.0 0
M  V30 6 C 5.1961 1.4999 0.0 0
M  V30 7 C 4.3301 0.0 0.0 0
M  V30 8 C 5.1961 -1.4999 0.0 0
M  V30 9 C 7.7942 1.0 0.0 0
M  V30 10 C 5.1961 2.4999 0.0 0
M  V30 11 C 3.4641 -0.5 0.0 0
M  V30 12 C 4.3301 -1.9999 0.0 0
M  V30 13 C 8.6602 1.5 0.0 0
M  V30 14 C 7.7942 0.0 0.0 0
M  V30 15 C 3.4641 -1.4999 0.0 0
M  V30 16 C 2.598 0.0 0.0 0
M  V30 17 C 9.5262 1.0 0.0 0
M  V30 18 C 8.6602 -0.4999 0.0 0
M  V30 19 N 1.732 -0.5 0.0 0
M  V30 20 C 9.5262 0.0 0.0 0
M  V30 21 C 0.866 0.0 0.0 0
M  V30 22 C 1.732 -1.5 0.0 0
M  V30 23 C 10.3923 -0.4999 0.0 0
M  V30 24 O 0.0 -0.4999 0.0 0
M  V30 25 C 0.866 1.0 0.0 0
M  V30 26 C 0.866 -2.0 0.0 0
M  V30 27 C 10.3923 -1.4999 0.0 0
M  V30 28 C 0.0 1.5 0.0 0
M  V30 29 C 1.732 1.5 0.0 0
M  V30 30 C 11.2583 -1.9999 0.0 0
M  V30 31 C 0.0 2.5 0.0 0
M  V30 32 C 1.732 2.5 0.0 0
M  V30 33 O 12.1243 -1.4999 0.0 0
M  V30 34 O 11.2583 -2.9999 0.0 0
M  V30 35 C 0.866 2.9999 0.0 0
M  V30 END ATOM
M  V30 BEGIN BOND
M  V30 1 2 1 2
M  V30 2 1 2 3
M  V30 3 1 2 4
M  V30 4 1 3 5
M  V30 5 1 3 6
M  V30 6 2 4 7
M  V30 7 1 4 8
M  V30 8 1 5 9
M  V30 9 1 6 10
M  V30 10 1 7 11
M  V30 11 2 8 12
M  V30 12 2 9 13
M  V30 13 1 9 14
M  V30 14 2 11 15
M  V30 15 1 11 16
M  V30 16 1 13 17
M  V30 17 2 14 18
M  V30 18 1 16 19
M  V30 19 2 17 20
M  V30 20 1 19 21
M  V30 21 1 19 22
M  V30 22 1 20 23
M  V30 23 2 21 24
M  V30 24 1 21 25
M  V30 25 1 22 26
M  V30 26 1 23 27
M  V30 27 2 25 28
M  V30 28 1 25 29
M  V30 29 1 27 30
M  V30 30 1 28 31
M  V30 31 2 29 32
M  V30 32 2 30 33
M  V30 33 1 30 34
M  V30 34 2 31 35
M  V30 35 1 12 15
M  V30 36 1 18 20
M  V30 37 1 32 35
M  V30 END BOND
M  V30 END CTAB
M  END
>  <Molecule ChEMBL ID>
CHEMBL2403501

>  <Smiles>
CCN(Cc1cccc(C(=O)N(CC)Cc2ccc(CCC(=O)O)cc2)c1)C(=O)c1ccccc1

>  <IC50_nM>
56200

>  <Assay Description>
Binding affinity to GST-tagged human PPARgamma LBD by ligand displacement assay

$$$$
CHEMBL3753560
Actelion Java MolfileCreator 2.0

  0  0  0  0  0  0              0 V3000
M  V30 BEGIN CTAB
M  V30 COUNTS 41 44 0 0 0
M  V30 BEGIN ATOM
M  V30 1 O 7.7942 5.9999 0.0 0
M  V30 2 C 6.9282 5.4999 0.0 0
M  V30 3 N 6.0621 5.9999 0.0 0
M  V30 4 N 6.9282 4.4999 0.0 0
M  V30 5 C 5.1961 5.5 0.0 0
M  V30 6 C 6.0621 3.9999 0.0 0
M  V30 7 O 4.3301 6.0 0.0 0
M  V30 8 C 5.1961 4.5 0.0 0
M  V30 9 O 6.0621 3.0 0.0 0
M  V30 10 C 4.3301 3.9999 0.0 0
M  V30 11 C 4.3301 2.9999 0.0 0
M  V30 12 C 3.4641 2.5 0.0 0
M  V30 13 C 5.1961 2.4999 0.0 0
M  V30 14 C 3.4641 1.5 0.0 0
M  V30 15 C 5.1961 1.4999 0.0 0
M  V30 16 C 4.3301 0.9999 0.0 0
M  V30 17 N 4.3301 0.0 0.0 0
M  V30 18 C 5.1961 -0.5 0.0 0
M  V30 19 C 3.4641 -0.5 0.0 0
M  V30 20 C 6.0621 0.0 0.0 0
M  V30 21 C 2.598 0.0 0.0 0
M  V30 22 O 6.9282 -0.5 0.0 0
M  V30 23 O 1.732 -0.5 0.0 0
M  V30 24 C 7.7942 0.0 0.0 0
M  V30 25 C 0.866 0.0 0.0 0
M  V30 26 C 8.6602 -0.5 0.0 0
M  V30 27 C 0.0 -0.5 0.0 0
M  V30 28 C 8.6602 -1.5 0.0 0
M  V30 29 C 9.5262 0.0 0.0 0
M  V30 30 C -0.866 0.0 0.0 0
M  V30 31 C 0.0 -1.4999 0.0 0
M  V30 32 C 9.5262 -2.0 0.0 0
M  V30 33 C 10.3923 -0.5 0.0 0
M  V30 34 C -1.732 -0.4999 0.0 0
M  V30 35 C -0.866 -1.9999 0.0 0
M  V30 36 C 10.3923 -1.5 0.0 0
M  V30 37 C -1.732 -1.4999 0.0 0
M  V30 38 O 11.2583 -1.9999 0.0 0
M  V30 39 O -2.598 -1.9999 0.0 0
M  V30 40 C 12.1243 -1.4999 0.0 0
M  V30 41 C -2.598 -2.9999 0.0 0
M  V30 END ATOM
M  V30 BEGIN BOND
M  V30 1 2 1 2
M  V30 2 1 2 3
M  V30 3 1 2 4
M  V30 4 1 3 5
M  V30 5 1 4 6
M  V30 6 2 5 7
M  V30 7 1 5 8
M  V30 8 2 6 9
M  V30 9 2 8 10
M  V30 10 1 10 11
M  V30 11 2 11 12
M  V30 12 1 11 13
M  V30 13 1 12 14
M  V30 14 2 13 15
M  V30 15 2 14 16
M  V30 16 1 16 17
M  V30 17 1 17 18
M  V30 18 1 17 19
M  V30 19 1 18 20
M  V30 20 1 19 21
M  V30 21 1 20 22
M  V30 22 1 21 23
M  V30 23 1 22 24
M  V30 24 1 23 25
M  V30 25 1 24 26
M  V30 26 1 25 27
M  V30 27 2 26 28
M  V30 28 1 26 29
M  V30 29 2 27 30
M  V30 30 1 27 31
M  V30 31 1 28 32
M  V30 32 2 29 33
M  V30 33 1 30 34
M  V30 34 2 31 35
M  V30 35 2 32 36
M  V30 36 2 34 37
M  V30 37 1 36 38
M  V30 38 1 37 39
M  V30 39 1 38 40
M  V30 40 1 39 41
M  V30 41 1 6 8
M  V30 42 1 15 16
M  V30 43 1 33 36
M  V30 44 1 35 37
M  V30 END BOND
M  V30 END CTAB
M  END
>  <Molecule ChEMBL ID>
CHEMBL3753560

>  <Smiles>
COc1ccc(COCCN(CCOCc2ccc(OC)cc2)c2ccc(C=C3C(=O)NC(=O)NC3=O)cc2)cc1

>  <IC50_nM>
59100

>  <Assay Description>
Binding affinity to GST-tagged human PPAR-gamma receptor by FRET assay

$$$$
CHEMBL2070094
Actelion Java MolfileCreator 2.0

  0  0  0  0  0  0              0 V3000
M  V30 BEGIN CTAB
M  V30 COUNTS 34 37 0 0 0
M  V30 BEGIN ATOM
M  V30 1 S 2.598 1.0 0.0 0
M  V30 2 O 3.598 1.0 0.0 0
M  V30 3 O 1.598 0.9999 0.0 0
M  V30 4 C 2.598 0.0 0.0 0
M  V30 5 C 2.598 2.0 0.0 0
M  V30 6 C 1.732 -0.5 0.0 0
M  V30 7 C 3.4641 -0.4999 0.0 0
M  V30 8 N 0.866 0.0 0.0 0 CHG=1
M  V30 9 C 1.732 -1.5 0.0 0
M  V30 10 C 3.4641 -1.4999 0.0 0
M  V30 11 O 0.866 1.0 0.0 0
M  V30 12 O 0.0 -0.5 0.0 0 CHG=-1
M  V30 13 C 2.598 -1.9999 0.0 0
M  V30 14 C 2.598 -2.9999 0.0 0
M  V30 15 S 1.789 -3.5877 0.0 0
M  V30 16 N 3.407 -3.5877 0.0 0
M  V30 17 C 2.098 -4.5388 0.0 0
M  V30 18 C 3.098 -4.5388 0.0 0
M  V30 19 C 1.5102 -5.3478 0.0 0
M  V30 20 C 3.6858 -5.3478 0.0 0
M  V30 21 O 1.917 -6.2614 0.0 0
M  V30 22 N 0.5157 -5.2433 0.0 0
M  V30 23 F 4.4948 -4.76 0.0 0
M  V30 24 F 4.2736 -6.1568 0.0 0
M  V30 25 F 2.8768 -5.9356 0.0 0
M  V30 26 C 0.109 -4.3297 0.0 0
M  V30 27 C -0.072 -6.0523 0.0 0
M  V30 28 C -0.8854 -4.2252 0.0 0
M  V30 29 C -1.0665 -5.9478 0.0 0
M  V30 30 C -1.4732 -5.0342 0.0 0
M  V30 31 C -1.2922 -3.3117 0.0 0
M  V30 32 C -2.4677 -4.9297 0.0 0
M  V30 33 C -2.2867 -3.2071 0.0 0
M  V30 34 C -2.8745 -4.0161 0.0 0
M  V30 END ATOM
M  V30 BEGIN BOND
M  V30 1 2 1 2
M  V30 2 2 1 3
M  V30 3 1 1 4
M  V30 4 1 1 5
M  V30 5 2 4 6
M  V30 6 1 4 7
M  V30 7 1 6 8
M  V30 8 1 6 9
M  V30 9 2 7 10
M  V30 10 2 8 11
M  V30 11 1 8 12
M  V30 12 2 9 13
M  V30 13 1 13 14
M  V30 14 1 14 15
M  V30 15 2 14 16
M  V30 16 1 15 17
M  V30 17 1 16 18
M  V30 18 1 17 19
M  V30 19 1 18 20
M  V30 20 2 19 21
M  V30 21 1 19 22
M  V30 22 1 20 23
M  V30 23 1 20 24
M  V30 24 1 20 25
M  V30 25 1 22 26
M  V30 26 1 22 27
M  V30 27 1 26 28
M  V30 28 1 27 29
M  V30 29 2 28 30
M  V30 30 1 28 31
M  V30 31 1 30 32
M  V30 32 2 31 33
M  V30 33 2 32 34
M  V30 34 1 10 13
M  V30 35 2 17 18
M  V30 36 1 29 30
M  V30 37 1 33 34
M  V30 END BOND
M  V30 END CTAB
M  END
>  <Molecule ChEMBL ID>
CHEMBL2070094

>  <Smiles>
CS(=O)(=O)c1ccc(-c2nc(C(F)(F)F)c(C(=O)N3CCc4ccccc4C3)s2)cc1[N+](=O)[O-]

>  <IC50_nM>
60000

>  <Assay Description>
Antagonist activity at human PPAR-gamma assessed as inhibition of interaction with DRIP-2 by fluorescence polarisation assay

$$$$
CHEMBL2070091
Actelion Java MolfileCreator 2.0

  0  0  0  0  0  0              0 V3000
M  V30 BEGIN CTAB
M  V30 COUNTS 28 30 0 0 0
M  V30 BEGIN ATOM
M  V30 1 S 2.598 1.0 0.0 0
M  V30 2 O 3.598 1.0 0.0 0
M  V30 3 O 1.598 0.9999 0.0 0
M  V30 4 C 2.598 0.0 0.0 0
M  V30 5 C 2.598 2.0 0.0 0
M  V30 6 C 1.732 -0.5 0.0 0
M  V30 7 C 3.4641 -0.4999 0.0 0
M  V30 8 N 0.866 0.0 0.0 0 CHG=1
M  V30 9 C 1.732 -1.5 0.0 0
M  V30 10 C 3.4641 -1.4999 0.0 0
M  V30 11 O 0.866 1.0 0.0 0
M  V30 12 O 0.0 -0.5 0.0 0 CHG=-1
M  V30 13 C 2.598 -1.9999 0.0 0
M  V30 14 C 2.598 -2.9999 0.0 0
M  V30 15 S 1.789 -3.5877 0.0 0
M  V30 16 N 3.407 -3.5877 0.0 0
M  V30 17 C 2.098 -4.5388 0.0 0
M  V30 18 C 3.098 -4.5388 0.0 0
M  V30 19 C 1.5102 -5.3478 0.0 0
M  V30 20 C 3.6858 -5.3478 0.0 0
M  V30 21 O 0.5157 -5.2433 0.0 0
M  V30 22 N 1.917 -6.2614 0.0 0
M  V30 23 C 1.3292 -7.0704 0.0 0
M  V30 24 C 2.9115 -6.3659 0.0 0
M  V30 25 C 1.7359 -7.9839 0.0 0
M  V30 26 C 3.3182 -7.2794 0.0 0
M  V30 27 C 2.7305 -8.0884 0.0 0
M  V30 28 C 3.1372 -9.002 0.0 0
M  V30 END ATOM
M  V30 BEGIN BOND
M  V30 1 2 1 2
M  V30 2 2 1 3
M  V30 3 1 1 4
M  V30 4 1 1 5
M  V30 5 2 4 6
M  V30 6 1 4 7
M  V30 7 1 6 8
M  V30 8 1 6 9
M  V30 9 2 7 10
M  V30 10 2 8 11
M  V30 11 1 8 12
M  V30 12 2 9 13
M  V30 13 1 13 14
M  V30 14 1 14 15
M  V30 15 2 14 16
M  V30 16 1 15 17
M  V30 17 1 16 18
M  V30 18 1 17 19
M  V30 19 1 18 20
M  V30 20 2 19 21
M  V30 21 1 19 22
M  V30 22 1 22 23
M  V30 23 1 22 24
M  V30 24 1 23 25
M  V30 25 1 24 26
M  V30 26 1 25 27
M  V30 27 1 27 28
M  V30 28 1 10 13
M  V30 29 2 17 18
M  V30 30 1 26 27
M  V30 END BOND
M  V30 END CTAB
M  END
>  <Molecule ChEMBL ID>
CHEMBL2070091

>  <Smiles>
Cc1nc(-c2ccc(S(C)(=O)=O)c([N+](=O)[O-])c2)sc1C(=O)N1CCC(C)CC1

>  <IC50_nM>
60000

>  <Assay Description>
Antagonist activity at human PPAR-gamma assessed as inhibition of interaction with DRIP-2 by fluorescence polarisation assay

$$$$
CHEMBL2070237
Actelion Java MolfileCreator 2.0

  0  0  0  0  0  0              0 V3000
M  V30 BEGIN CTAB
M  V30 COUNTS 33 36 0 0 0
M  V30 BEGIN ATOM
M  V30 1 S 2.598 1.0 0.0 0
M  V30 2 O 3.598 1.0 0.0 0
M  V30 3 O 1.598 0.9999 0.0 0
M  V30 4 C 2.598 0.0 0.0 0
M  V30 5 C 2.598 2.0 0.0 0
M  V30 6 C 1.732 -0.5 0.0 0
M  V30 7 C 3.4641 -0.4999 0.0 0
M  V30 8 N 0.866 0.0 0.0 0 CHG=1
M  V30 9 C 1.732 -1.5 0.0 0
M  V30 10 C 3.4641 -1.4999 0.0 0
M  V30 11 O 0.866 1.0 0.0 0
M  V30 12 O 0.0 -0.5 0.0 0 CHG=-1
M  V30 13 C 2.598 -1.9999 0.0 0
M  V30 14 C 2.598 -2.9999 0.0 0
M  V30 15 S 1.789 -3.5877 0.0 0
M  V30 16 N 3.407 -3.5877 0.0 0
M  V30 17 C 2.098 -4.5388 0.0 0
M  V30 18 C 3.098 -4.5388 0.0 0
M  V30 19 C 1.5102 -5.3478 0.0 0
M  V30 20 C 3.6858 -5.3478 0.0 0
M  V30 21 O 0.5157 -5.2433 0.0 0
M  V30 22 N 1.917 -6.2614 0.0 0
M  V30 23 C 4.6803 -5.2433 0.0 0
M  V30 24 C 1.417 -7.1274 0.0 0
M  V30 25 C 2.8951 -6.4693 0.0 0
M  V30 26 C 1.0779 -8.4483 0.0 0
M  V30 27 C 2.0861 -7.8705 0.0 0
M  V30 28 C 2.9997 -7.4638 0.0 0
M  V30 29 C 1.8211 -9.1175 0.0 0
M  V30 30 C 2.7721 -8.8085 0.0 0
M  V30 31 C 3.9992 -7.4952 0.0 0
M  V30 32 C 1.1519 -9.8606 0.0 0
M  V30 33 C 2.1301 -10.0685 0.0 0
M  V30 END ATOM
M  V30 BEGIN BOND
M  V30 1 2 1 2
M  V30 2 2 1 3
M  V30 3 1 1 4
M  V30 4 1 1 5
M  V30 5 2 4 6
M  V30 6 1 4 7
M  V30 7 1 6 8
M  V30 8 1 6 9
M  V30 9 2 7 10
M  V30 10 2 8 11
M  V30 11 1 8 12
M  V30 12 2 9 13
M  V30 13 1 13 14
M  V30 14 1 14 15
M  V30 15 2 14 16
M  V30 16 1 15 17
M  V30 17 1 16 18
M  V30 18 1 17 19
M  V30 19 1 18 20
M  V30 20 2 19 21
M  V30 21 1 19 22
M  V30 22 1 20 23
M  V30 23 1 22 24
M  V30 24 1 22 25
M  V30 25 1 24 26
M  V30 26 1 24 27
M  V30 27 1 25 28
M  V30 28 1 26 29
M  V30 29 1 28 30
M  V30 30 1 28 31
M  V30 31 1 29 32
M  V30 32 1 29 33
M  V30 33 1 10 13
M  V30 34 2 17 18
M  V30 35 1 27 28
M  V30 36 1 29 30
M  V30 END BOND
M  V30 END CTAB
M  END
>  <Molecule ChEMBL ID>
CHEMBL2070237

>  <Smiles>
CCc1nc(-c2ccc(S(C)(=O)=O)c([N+](=O)[O-])c2)sc1C(=O)N1CC2(C)CC1CC(C)(C)C2

>  <IC50_nM>
60000

>  <Assay Description>
Antagonist activity at human PPAR-gamma assessed as inhibition of interaction with DRIP-2 by fluorescence polarisation assay

$$$$
CHEMBL2070095
Actelion Java MolfileCreator 2.0

  0  0  0  0  0  0              0 V3000
M  V30 BEGIN CTAB
M  V30 COUNTS 34 36 0 0 0
M  V30 BEGIN ATOM
M  V30 1 S 9.0248 -0.4182 0.0 0
M  V30 2 O 9.1293 -1.4128 0.0 0
M  V30 3 O 8.9203 0.5762 0.0 0
M  V30 4 C 8.0303 -0.5228 0.0 0
M  V30 5 C 10.0193 -0.3137 0.0 0
M  V30 6 C 7.4425 0.2861 0.0 0
M  V30 7 C 7.6236 -1.4363 0.0 0
M  V30 8 N 7.8492 1.1997 0.0 0 CHG=1
M  V30 9 C 6.448 0.1816 0.0 0
M  V30 10 C 6.629 -1.5408 0.0 0
M  V30 11 O 8.8438 1.3042 0.0 0
M  V30 12 O 7.2615 2.0087 0.0 0 CHG=-1
M  V30 13 C 6.0412 -0.7318 0.0 0
M  V30 14 C 5.0467 -0.8364 0.0 0
M  V30 15 S 4.3776 -0.0932 0.0 0
M  V30 16 N 4.5467 -1.7024 0.0 0
M  V30 17 C 3.4641 -0.5 0.0 0
M  V30 18 C 3.5686 -1.4945 0.0 0
M  V30 19 C 2.598 0.0 0.0 0
M  V30 20 C 2.8254 -2.1636 0.0 0
M  V30 21 O 1.732 -0.5 0.0 0
M  V30 22 N 2.598 0.9999 0.0 0
M  V30 23 F 3.4946 -2.9067 0.0 0
M  V30 24 F 2.0823 -2.8327 0.0 0
M  V30 25 F 2.1563 -1.4205 0.0 0
M  V30 26 C 1.732 1.4999 0.0 0
M  V30 27 C 3.4641 1.4999 0.0 0
M  V30 28 C 1.732 2.4999 0.0 0
M  V30 29 C 0.866 2.9999 0.0 0
M  V30 30 C 2.598 3.0 0.0 0
M  V30 31 F 0.0 2.4999 0.0 0
M  V30 32 C 0.866 3.9999 0.0 0
M  V30 33 C 2.598 4.0 0.0 0
M  V30 34 C 1.732 4.4999 0.0 0
M  V30 END ATOM
M  V30 BEGIN BOND
M  V30 1 2 1 2
M  V30 2 2 1 3
M  V30 3 1 1 4
M  V30 4 1 1 5
M  V30 5 2 4 6
M  V30 6 1 4 7
M  V30 7 1 6 8
M  V30 8 1 6 9
M  V30 9 2 7 10
M  V30 10 2 8 11
M  V30 11 1 8 12
M  V30 12 2 9 13
M  V30 13 1 13 14
M  V30 14 1 14 15
M  V30 15 2 14 16
M  V30 16 1 15 17
M  V30 17 1 16 18
M  V30 18 1 17 19
M  V30 19 1 18 20
M  V30 20 2 19 21
M  V30 21 1 19 22
M  V30 22 1 20 23
M  V30 23 1 20 24
M  V30 24 1 20 25
M  V30 25 1 22 26
M  V30 26 1 22 27
M  V30 27 1 26 28
M  V30 28 2 28 29
M  V30 29 1 28 30
M  V30 30 1 29 31
M  V30 31 1 29 32
M  V30 32 2 30 33
M  V30 33 2 32 34
M  V30 34 1 10 13
M  V30 35 2 17 18
M  V30 36 1 33 34
M  V30 END BOND
M  V30 END CTAB
M  END
>  <Molecule ChEMBL ID>
CHEMBL2070095

>  <Smiles>
CN(Cc1ccccc1F)C(=O)c1sc(-c2ccc(S(C)(=O)=O)c([N+](=O)[O-])c2)nc1C(F)(F)F

>  <IC50_nM>
60000

>  <Assay Description>
Antagonist activity at human PPAR-gamma assessed as inhibition of interaction with DRIP-2 by fluorescence polarisation assay

$$$$
CHEMBL2070236
Actelion Java MolfileCreator 2.0

  0  0  0  0  0  0              0 V3000
M  V30 BEGIN CTAB
M  V30 COUNTS 35 38 0 0 0
M  V30 BEGIN ATOM
M  V30 1 S 2.598 1.0 0.0 0
M  V30 2 O 3.598 1.0 0.0 0
M  V30 3 O 1.598 0.9999 0.0 0
M  V30 4 C 2.598 0.0 0.0 0
M  V30 5 C 2.598 2.0 0.0 0
M  V30 6 C 1.732 -0.5 0.0 0
M  V30 7 C 3.4641 -0.4999 0.0 0
M  V30 8 N 0.866 0.0 0.0 0 CHG=1
M  V30 9 C 1.732 -1.5 0.0 0
M  V30 10 C 3.4641 -1.4999 0.0 0
M  V30 11 O 0.866 1.0 0.0 0
M  V30 12 O 0.0 -0.5 0.0 0 CHG=-1
M  V30 13 C 2.598 -1.9999 0.0 0
M  V30 14 C 2.598 -2.9999 0.0 0
M  V30 15 S 1.789 -3.5877 0.0 0
M  V30 16 N 3.407 -3.5877 0.0 0
M  V30 17 C 2.098 -4.5388 0.0 0
M  V30 18 C 3.098 -4.5388 0.0 0
M  V30 19 C 1.5102 -5.3478 0.0 0
M  V30 20 C 3.6858 -5.3478 0.0 0
M  V30 21 O 1.917 -6.2614 0.0 0
M  V30 22 N 0.5157 -5.2433 0.0 0
M  V30 23 F 4.4948 -4.76 0.0 0
M  V30 24 F 4.2736 -6.1568 0.0 0
M  V30 25 F 2.8768 -5.9356 0.0 0
M  V30 26 C 0.0157 -4.3773 0.0 0
M  V30 27 C -0.1533 -5.9864 0.0 0
M  V30 28 C -0.9586 -3.4231 0.0 0
M  V30 29 C -0.9623 -4.5852 0.0 0
M  V30 30 C -1.0669 -5.5797 0.0 0
M  V30 31 C -1.9097 -3.7322 0.0 0
M  V30 32 C -2.1176 -4.7103 0.0 0
M  V30 33 C -1.5938 -6.4296 0.0 0
M  V30 34 C -2.2187 -2.7811 0.0 0
M  V30 35 C -2.8878 -3.5243 0.0 0
M  V30 END ATOM
M  V30 BEGIN BOND
M  V30 1 2 1 2
M  V30 2 2 1 3
M  V30 3 1 1 4
M  V30 4 1 1 5
M  V30 5 2 4 6
M  V30 6 1 4 7
M  V30 7 1 6 8
M  V30 8 1 6 9
M  V30 9 2 7 10
M  V30 10 2 8 11
M  V30 11 1 8 12
M  V30 12 2 9 13
M  V30 13 1 13 14
M  V30 14 1 14 15
M  V30 15 2 14 16
M  V30 16 1 15 17
M  V30 17 1 16 18
M  V30 18 1 17 19
M  V30 19 1 18 20
M  V30 20 2 19 21
M  V30 21 1 19 22
M  V30 22 1 20 23
M  V30 23 1 20 24
M  V30 24 1 20 25
M  V30 25 1 22 26
M  V30 26 1 22 27
M  V30 27 1 26 28
M  V30 28 1 26 29
M  V30 29 1 27 30
M  V30 30 1 28 31
M  V30 31 1 30 32
M  V30 32 1 30 33
M  V30 33 1 31 34
M  V30 34 1 31 35
M  V30 35 1 10 13
M  V30 36 2 17 18
M  V30 37 1 29 30
M  V30 38 1 31 32
M  V30 END BOND
M  V30 END CTAB
M  END
>  <Molecule ChEMBL ID>
CHEMBL2070236

>  <Smiles>
CC1(C)CC2CC(C)(CN2C(=O)c2sc(-c3ccc(S(C)(=O)=O)c([N+](=O)[O-])c3)nc2C(F)(F)F)C1

>  <IC50_nM>
60000

>  <Assay Description>
Antagonist activity at human PPAR-gamma assessed as inhibition of interaction with DRIP-2 by fluorescence polarisation assay

$$$$
CHEMBL2070097
Actelion Java MolfileCreator 2.0

  0  0  0  0  0  0              0 V3000
M  V30 BEGIN CTAB
M  V30 COUNTS 31 33 0 0 0
M  V30 BEGIN ATOM
M  V30 1 S 2.598 1.0 0.0 0
M  V30 2 O 3.598 1.0 0.0 0
M  V30 3 O 1.598 0.9999 0.0 0
M  V30 4 C 2.598 0.0 0.0 0
M  V30 5 C 2.598 2.0 0.0 0
M  V30 6 C 1.732 -0.5 0.0 0
M  V30 7 C 3.4641 -0.4999 0.0 0
M  V30 8 N 0.866 0.0 0.0 0 CHG=1
M  V30 9 C 1.732 -1.5 0.0 0
M  V30 10 C 3.4641 -1.4999 0.0 0
M  V30 11 O 0.866 1.0 0.0 0
M  V30 12 O 0.0 -0.5 0.0 0 CHG=-1
M  V30 13 C 2.598 -1.9999 0.0 0
M  V30 14 C 2.598 -2.9999 0.0 0
M  V30 15 S 1.789 -3.5877 0.0 0
M  V30 16 N 3.407 -3.5877 0.0 0
M  V30 17 C 2.098 -4.5388 0.0 0
M  V30 18 C 3.098 -4.5388 0.0 0
M  V30 19 C 1.5102 -5.3478 0.0 0
M  V30 20 C 3.6858 -5.3478 0.0 0
M  V30 21 O 1.917 -6.2614 0.0 0
M  V30 22 N 0.5157 -5.2433 0.0 0
M  V30 23 F 4.4948 -4.76 0.0 0
M  V30 24 F 4.2736 -6.1568 0.0 0
M  V30 25 F 2.8768 -5.9356 0.0 0
M  V30 26 C -0.072 -6.0523 0.0 0
M  V30 27 C 0.109 -4.3297 0.0 0
M  V30 28 C -1.0665 -5.9478 0.0 0
M  V30 29 C -0.8854 -4.2252 0.0 0
M  V30 30 C -1.4732 -5.0342 0.0 0
M  V30 31 C -2.4677 -4.9297 0.0 0
M  V30 END ATOM
M  V30 BEGIN BOND
M  V30 1 2 1 2
M  V30 2 2 1 3
M  V30 3 1 1 4
M  V30 4 1 1 5
M  V30 5 2 4 6
M  V30 6 1 4 7
M  V30 7 1 6 8
M  V30 8 1 6 9
M  V30 9 2 7 10
M  V30 10 2 8 11
M  V30 11 1 8 12
M  V30 12 2 9 13
M  V30 13 1 13 14
M  V30 14 1 14 15
M  V30 15 2 14 16
M  V30 16 1 15 17
M  V30 17 1 16 18
M  V30 18 1 17 19
M  V30 19 1 18 20
M  V30 20 2 19 21
M  V30 21 1 19 22
M  V30 22 1 20 23
M  V30 23 1 20 24
M  V30 24 1 20 25
M  V30 25 1 22 26
M  V30 26 1 22 27
M  V30 27 1 26 28
M  V30 28 1 27 29
M  V30 29 1 28 30
M  V30 30 1 30 31
M  V30 31 1 10 13
M  V30 32 2 17 18
M  V30 33 1 29 30
M  V30 END BOND
M  V30 END CTAB
M  END
>  <Molecule ChEMBL ID>
CHEMBL2070097

>  <Smiles>
CC1CCN(C(=O)c2sc(-c3ccc(S(C)(=O)=O)c([N+](=O)[O-])c3)nc2C(F)(F)F)CC1

>  <IC50_nM>
60000

>  <Assay Description>
Antagonist activity at human PPAR-gamma assessed as inhibition of interaction with DRIP-2 by fluorescence polarisation assay

$$$$
CHEMBL2070232
Actelion Java MolfileCreator 2.0

  0  0  0  0  0  0              0 V3000
M  V30 BEGIN CTAB
M  V30 COUNTS 32 35 0 0 0
M  V30 BEGIN ATOM
M  V30 1 S 2.598 1.0 0.0 0
M  V30 2 O 3.598 1.0 0.0 0
M  V30 3 O 1.598 0.9999 0.0 0
M  V30 4 C 2.598 0.0 0.0 0
M  V30 5 C 2.598 2.0 0.0 0
M  V30 6 C 1.732 -0.5 0.0 0
M  V30 7 C 3.4641 -0.4999 0.0 0
M  V30 8 N 0.866 0.0 0.0 0 CHG=1
M  V30 9 C 1.732 -1.5 0.0 0
M  V30 10 C 3.4641 -1.4999 0.0 0
M  V30 11 O 0.866 1.0 0.0 0
M  V30 12 O 0.0 -0.5 0.0 0 CHG=-1
M  V30 13 C 2.598 -1.9999 0.0 0
M  V30 14 C 2.598 -2.9999 0.0 0
M  V30 15 S 1.789 -3.5877 0.0 0
M  V30 16 N 3.407 -3.5877 0.0 0
M  V30 17 C 2.098 -4.5388 0.0 0
M  V30 18 C 3.098 -4.5388 0.0 0
M  V30 19 C 1.5102 -5.3478 0.0 0
M  V30 20 C 3.6858 -5.3478 0.0 0
M  V30 21 O 1.917 -6.2614 0.0 0
M  V30 22 N 0.5157 -5.2433 0.0 0
M  V30 23 C 3.2791 -6.2614 0.0 0
M  V30 24 C 4.6803 -5.2433 0.0 0
M  V30 25 C -0.072 -6.0523 0.0 0
M  V30 26 C 0.109 -4.3297 0.0 0
M  V30 27 C 3.8669 -7.0704 0.0 0
M  V30 28 C 5.2681 -6.0523 0.0 0
M  V30 29 C -1.0665 -5.9478 0.0 0
M  V30 30 C -0.8854 -4.2252 0.0 0
M  V30 31 C 4.8614 -6.9658 0.0 0
M  V30 32 C -1.4732 -5.0342 0.0 0
M  V30 END ATOM
M  V30 BEGIN BOND
M  V30 1 2 1 2
M  V30 2 2 1 3
M  V30 3 1 1 4
M  V30 4 1 1 5
M  V30 5 2 4 6
M  V30 6 1 4 7
M  V30 7 1 6 8
M  V30 8 1 6 9
M  V30 9 2 7 10
M  V30 10 2 8 11
M  V30 11 1 8 12
M  V30 12 2 9 13
M  V30 13 1 13 14
M  V30 14 1 14 15
M  V30 15 2 14 16
M  V30 16 1 15 17
M  V30 17 1 16 18
M  V30 18 1 17 19
M  V30 19 1 18 20
M  V30 20 2 19 21
M  V30 21 1 19 22
M  V30 22 2 20 23
M  V30 23 1 20 24
M  V30 24 1 22 25
M  V30 25 1 22 26
M  V30 26 1 23 27
M  V30 27 2 24 28
M  V30 28 1 25 29
M  V30 29 1 26 30
M  V30 30 2 27 31
M  V30 31 1 29 32
M  V30 32 1 10 13
M  V30 33 2 17 18
M  V30 34 1 28 31
M  V30 35 1 30 32
M  V30 END BOND
M  V30 END CTAB
M  END
>  <Molecule ChEMBL ID>
CHEMBL2070232

>  <Smiles>
CS(=O)(=O)c1ccc(-c2nc(-c3ccccc3)c(C(=O)N3CCCCC3)s2)cc1[N+](=O)[O-]

>  <IC50_nM>
60000

>  <Assay Description>
Antagonist activity at human PPAR-gamma assessed as inhibition of interaction with DRIP-2 by fluorescence polarisation assay

$$$$
CHEMBL2070092
Actelion Java MolfileCreator 2.0

  0  0  0  0  0  0              0 V3000
M  V30 BEGIN CTAB
M  V30 COUNTS 32 35 0 0 0
M  V30 BEGIN ATOM
M  V30 1 S 2.598 1.0 0.0 0
M  V30 2 O 3.598 1.0 0.0 0
M  V30 3 O 1.598 0.9999 0.0 0
M  V30 4 C 2.598 0.0 0.0 0
M  V30 5 C 2.598 2.0 0.0 0
M  V30 6 C 1.732 -0.5 0.0 0
M  V30 7 C 3.4641 -0.4999 0.0 0
M  V30 8 N 0.866 0.0 0.0 0 CHG=1
M  V30 9 C 1.732 -1.5 0.0 0
M  V30 10 C 3.4641 -1.4999 0.0 0
M  V30 11 O 0.866 1.0 0.0 0
M  V30 12 O 0.0 -0.5 0.0 0 CHG=-1
M  V30 13 C 2.598 -1.9999 0.0 0
M  V30 14 C 2.598 -2.9999 0.0 0
M  V30 15 S 1.789 -3.5877 0.0 0
M  V30 16 N 3.407 -3.5877 0.0 0
M  V30 17 C 2.098 -4.5388 0.0 0
M  V30 18 C 3.098 -4.5388 0.0 0
M  V30 19 C 1.5102 -5.3478 0.0 0
M  V30 20 C 3.6858 -5.3478 0.0 0
M  V30 21 O 0.5157 -5.2433 0.0 0
M  V30 22 N 1.917 -6.2614 0.0 0
M  V30 23 C 1.417 -7.1274 0.0 0
M  V30 24 C 2.8951 -6.4693 0.0 0
M  V30 25 C 1.0779 -8.4483 0.0 0
M  V30 26 C 2.0861 -7.8705 0.0 0
M  V30 27 C 2.9997 -7.4638 0.0 0
M  V30 28 C 1.8211 -9.1175 0.0 0
M  V30 29 C 2.7721 -8.8085 0.0 0
M  V30 30 C 3.9992 -7.4952 0.0 0
M  V30 31 C 1.1519 -9.8606 0.0 0
M  V30 32 C 2.1301 -10.0685 0.0 0
M  V30 END ATOM
M  V30 BEGIN BOND
M  V30 1 2 1 2
M  V30 2 2 1 3
M  V30 3 1 1 4
M  V30 4 1 1 5
M  V30 5 2 4 6
M  V30 6 1 4 7
M  V30 7 1 6 8
M  V30 8 1 6 9
M  V30 9 2 7 10
M  V30 10 2 8 11
M  V30 11 1 8 12
M  V30 12 2 9 13
M  V30 13 1 13 14
M  V30 14 1 14 15
M  V30 15 2 14 16
M  V30 16 1 15 17
M  V30 17 1 16 18
M  V30 18 1 17 19
M  V30 19 1 18 20
M  V30 20 2 19 21
M  V30 21 1 19 22
M  V30 22 1 22 23
M  V30 23 1 22 24
M  V30 24 1 23 25
M  V30 25 1 23 26
M  V30 26 1 24 27
M  V30 27 1 25 28
M  V30 28 1 27 29
M  V30 29 1 27 30
M  V30 30 1 28 31
M  V30 31 1 28 32
M  V30 32 1 10 13
M  V30 33 2 17 18
M  V30 34 1 26 27
M  V30 35 1 28 29
M  V30 END BOND
M  V30 END CTAB
M  END
>  <Molecule ChEMBL ID>
CHEMBL2070092

>  <Smiles>
Cc1nc(-c2ccc(S(C)(=O)=O)c([N+](=O)[O-])c2)sc1C(=O)N1CC2(C)CC1CC(C)(C)C2

>  <IC50_nM>
60000

>  <Assay Description>
Antagonist activity at human PPAR-gamma assessed as inhibition of interaction with DRIP-2 by fluorescence polarisation assay

$$$$
CHEMBL2070096
Actelion Java MolfileCreator 2.0

  0  0  0  0  0  0              0 V3000
M  V30 BEGIN CTAB
M  V30 COUNTS 33 35 0 0 0
M  V30 BEGIN ATOM
M  V30 1 S 9.0248 -0.4182 0.0 0
M  V30 2 O 9.1293 -1.4128 0.0 0
M  V30 3 O 8.9203 0.5762 0.0 0
M  V30 4 C 8.0303 -0.5228 0.0 0
M  V30 5 C 10.0193 -0.3137 0.0 0
M  V30 6 C 7.4425 0.2861 0.0 0
M  V30 7 C 7.6236 -1.4363 0.0 0
M  V30 8 N 7.8492 1.1997 0.0 0 CHG=1
M  V30 9 C 6.448 0.1816 0.0 0
M  V30 10 C 6.629 -1.5408 0.0 0
M  V30 11 O 8.8438 1.3042 0.0 0
M  V30 12 O 7.2615 2.0087 0.0 0 CHG=-1
M  V30 13 C 6.0412 -0.7318 0.0 0
M  V30 14 C 5.0467 -0.8364 0.0 0
M  V30 15 S 4.3776 -0.0932 0.0 0
M  V30 16 N 4.5467 -1.7024 0.0 0
M  V30 17 C 3.4641 -0.5 0.0 0
M  V30 18 C 3.5686 -1.4945 0.0 0
M  V30 19 C 2.598 0.0 0.0 0
M  V30 20 C 2.8254 -2.1636 0.0 0
M  V30 21 O 1.732 -0.5 0.0 0
M  V30 22 N 2.598 0.9999 0.0 0
M  V30 23 F 3.4946 -2.9067 0.0 0
M  V30 24 F 2.0823 -2.8327 0.0 0
M  V30 25 F 2.1563 -1.4205 0.0 0
M  V30 26 C 1.732 1.4999 0.0 0
M  V30 27 C 3.4641 1.4999 0.0 0
M  V30 28 C 1.732 2.4999 0.0 0
M  V30 29 C 0.866 2.9999 0.0 0
M  V30 30 C 2.598 3.0 0.0 0
M  V30 31 C 0.866 3.9999 0.0 0
M  V30 32 C 2.598 4.0 0.0 0
M  V30 33 C 1.732 4.4999 0.0 0
M  V30 END ATOM
M  V30 BEGIN BOND
M  V30 1 2 1 2
M  V30 2 2 1 3
M  V30 3 1 1 4
M  V30 4 1 1 5
M  V30 5 2 4 6
M  V30 6 1 4 7
M  V30 7 1 6 8
M  V30 8 1 6 9
M  V30 9 2 7 10
M  V30 10 2 8 11
M  V30 11 1 8 12
M  V30 12 2 9 13
M  V30 13 1 13 14
M  V30 14 1 14 15
M  V30 15 2 14 16
M  V30 16 1 15 17
M  V30 17 1 16 18
M  V30 18 1 17 19
M  V30 19 1 18 20
M  V30 20 2 19 21
M  V30 21 1 19 22
M  V30 22 1 20 23
M  V30 23 1 20 24
M  V30 24 1 20 25
M  V30 25 1 22 26
M  V30 26 1 22 27
M  V30 27 1 26 28
M  V30 28 2 28 29
M  V30 29 1 28 30
M  V30 30 1 29 31
M  V30 31 2 30 32
M  V30 32 2 31 33
M  V30 33 1 10 13
M  V30 34 2 17 18
M  V30 35 1 32 33
M  V30 END BOND
M  V30 END CTAB
M  END
>  <Molecule ChEMBL ID>
CHEMBL2070096

>  <Smiles>
CN(Cc1ccccc1)C(=O)c1sc(-c2ccc(S(C)(=O)=O)c([N+](=O)[O-])c2)nc1C(F)(F)F

>  <IC50_nM>
60000

>  <Assay Description>
Antagonist activity at human PPAR-gamma assessed as inhibition of interaction with DRIP-2 by fluorescence polarisation assay

$$$$
CHEMBL2070234
Actelion Java MolfileCreator 2.0

  0  0  0  0  0  0              0 V3000
M  V30 BEGIN CTAB
M  V30 COUNTS 31 35 0 0 0
M  V30 BEGIN ATOM
M  V30 1 S 8.0707 1.1642 0.0 0
M  V30 2 O 8.3645 0.2084 0.0 0
M  V30 3 O 7.7768 2.1201 0.0 0
M  V30 4 C 7.1148 0.8704 0.0 0
M  V30 5 C 9.0265 1.4581 0.0 0
M  V30 6 C 6.3824 1.5512 0.0 0
M  V30 7 C 6.8914 -0.1042 0.0 0
M  V30 8 N 6.6059 2.526 0.0 0 CHG=1
M  V30 9 C 5.4266 1.2574 0.0 0
M  V30 10 C 5.9356 -0.3981 0.0 0
M  V30 11 O 7.5617 2.8198 0.0 0
M  V30 12 O 5.8735 3.2068 0.0 0 CHG=-1
M  V30 13 C 5.2031 0.2827 0.0 0
M  V30 14 C 4.2473 -0.0111 0.0 0
M  V30 15 S 3.4477 0.5894 0.0 0
M  V30 16 N 3.9232 -0.9571 0.0 0
M  V30 17 C 2.6295 0.0145 0.0 0
M  V30 18 C 2.9233 -0.9412 0.0 0
M  V30 19 C 1.6834 0.3386 0.0 0
M  V30 20 O 1.4911 1.32 0.0 0
M  V30 21 N 0.9297 -0.3185 0.0 0
M  V30 22 C 0.0 0.0 0.0 0
M  V30 23 C 0.0172 1.0847 0.0 0
M  V30 24 C -0.7406 -0.2764 0.0 0
M  V30 25 C -0.5768 -0.749 0.0 0
M  V30 26 C -0.9986 1.4291 0.0 0
M  V30 27 C -1.9199 0.0655 0.0 0
M  V30 28 C -1.5588 -0.4611 0.0 0
M  V30 29 C -1.8677 1.1055 0.0 0
M  V30 30 C -1.461 0.7879 0.0 0
M  V30 31 C -2.4708 -0.7059 0.0 0
M  V30 END ATOM
M  V30 BEGIN BOND
M  V30 1 2 1 2
M  V30 2 2 1 3
M  V30 3 1 1 4
M  V30 4 1 1 5
M  V30 5 2 4 6
M  V30 6 1 4 7
M  V30 7 1 6 8
M  V30 8 1 6 9
M  V30 9 2 7 10
M  V30 10 2 8 11
M  V30 11 1 8 12
M  V30 12 2 9 13
M  V30 13 1 13 14
M  V30 14 1 14 15
M  V30 15 2 14 16
M  V30 16 1 15 17
M  V30 17 1 16 18
M  V30 18 1 17 19
M  V30 19 2 19 20
M  V30 20 1 19 21
M  V30 21 1 21 22
M  V30 22 1 22 23
M  V30 23 1 22 24
M  V30 24 1 22 25
M  V30 25 1 23 26
M  V30 26 1 24 27
M  V30 27 1 25 28
M  V30 28 1 26 29
M  V30 29 1 26 30
M  V30 30 1 27 31
M  V30 31 1 10 13
M  V30 32 2 17 18
M  V30 33 1 27 29
M  V30 34 1 28 30
M  V30 35 1 28 31
M  V30 END BOND
M  V30 END CTAB
M  END
>  <Molecule ChEMBL ID>
CHEMBL2070234

>  <Smiles>
CS(=O)(=O)c1ccc(-c2ncc(C(=O)NC34CC5CC(CC(C5)C3)C4)s2)cc1[N+](=O)[O-]

>  <IC50_nM>
60000

>  <Assay Description>
Antagonist activity at human PPAR-gamma assessed as inhibition of interaction with DRIP-2 by fluorescence polarisation assay

$$$$
CHEMBL2070099
Actelion Java MolfileCreator 2.0

  0  0  0  0  0  0              0 V3000
M  V30 BEGIN CTAB
M  V30 COUNTS 26 28 0 0 0
M  V30 BEGIN ATOM
M  V30 1 S 2.598 1.0 0.0 0
M  V30 2 O 3.598 1.0 0.0 0
M  V30 3 O 1.598 0.9999 0.0 0
M  V30 4 C 2.598 0.0 0.0 0
M  V30 5 C 2.598 2.0 0.0 0
M  V30 6 C 1.732 -0.5 0.0 0
M  V30 7 C 3.4641 -0.4999 0.0 0
M  V30 8 N 0.866 0.0 0.0 0 CHG=1
M  V30 9 C 1.732 -1.5 0.0 0
M  V30 10 C 3.4641 -1.4999 0.0 0
M  V30 11 O 0.866 1.0 0.0 0
M  V30 12 O 0.0 -0.5 0.0 0 CHG=-1
M  V30 13 C 2.598 -1.9999 0.0 0
M  V30 14 C 2.598 -2.9999 0.0 0
M  V30 15 S 1.789 -3.5877 0.0 0
M  V30 16 N 3.407 -3.5877 0.0 0
M  V30 17 C 2.098 -4.5388 0.0 0
M  V30 18 C 3.098 -4.5388 0.0 0
M  V30 19 C 1.5102 -5.3478 0.0 0
M  V30 20 O 0.5157 -5.2433 0.0 0
M  V30 21 N 1.917 -6.2614 0.0 0
M  V30 22 C 1.3292 -7.0704 0.0 0
M  V30 23 C 2.9115 -6.3659 0.0 0
M  V30 24 C 1.7359 -7.9839 0.0 0
M  V30 25 C 3.3182 -7.2794 0.0 0
M  V30 26 C 2.7305 -8.0884 0.0 0
M  V30 END ATOM
M  V30 BEGIN BOND
M  V30 1 2 1 2
M  V30 2 2 1 3
M  V30 3 1 1 4
M  V30 4 1 1 5
M  V30 5 2 4 6
M  V30 6 1 4 7
M  V30 7 1 6 8
M  V30 8 1 6 9
M  V30 9 2 7 10
M  V30 10 2 8 11
M  V30 11 1 8 12
M  V30 12 2 9 13
M  V30 13 1 13 14
M  V30 14 1 14 15
M  V30 15 2 14 16
M  V30 16 1 15 17
M  V30 17 1 16 18
M  V30 18 1 17 19
M  V30 19 2 19 20
M  V30 20 1 19 21
M  V30 21 1 21 22
M  V30 22 1 21 23
M  V30 23 1 22 24
M  V30 24 1 23 25
M  V30 25 1 24 26
M  V30 26 1 10 13
M  V30 27 2 17 18
M  V30 28 1 25 26
M  V30 END BOND
M  V30 END CTAB
M  END
>  <Molecule ChEMBL ID>
CHEMBL2070099

>  <Smiles>
CS(=O)(=O)c1ccc(-c2ncc(C(=O)N3CCCCC3)s2)cc1[N+](=O)[O-]

>  <IC50_nM>
60000

>  <Assay Description>
Antagonist activity at human PPAR-gamma assessed as inhibition of interaction with DRIP-2 by fluorescence polarisation assay

$$$$
CHEMBL2070238
Actelion Java MolfileCreator 2.0

  0  0  0  0  0  0              0 V3000
M  V30 BEGIN CTAB
M  V30 COUNTS 34 36 0 0 0
M  V30 BEGIN ATOM
M  V30 1 S 9.0248 -0.4182 0.0 0
M  V30 2 O 9.1293 -1.4128 0.0 0
M  V30 3 O 8.9203 0.5762 0.0 0
M  V30 4 C 8.0303 -0.5228 0.0 0
M  V30 5 C 10.0193 -0.3137 0.0 0
M  V30 6 C 7.4425 0.2861 0.0 0
M  V30 7 C 7.6236 -1.4363 0.0 0
M  V30 8 N 7.8492 1.1997 0.0 0 CHG=1
M  V30 9 C 6.448 0.1816 0.0 0
M  V30 10 C 6.629 -1.5408 0.0 0
M  V30 11 O 8.8438 1.3042 0.0 0
M  V30 12 O 7.2615 2.0087 0.0 0 CHG=-1
M  V30 13 C 6.0412 -0.7318 0.0 0
M  V30 14 C 5.0467 -0.8364 0.0 0
M  V30 15 S 4.3776 -0.0932 0.0 0
M  V30 16 N 4.5467 -1.7024 0.0 0
M  V30 17 C 3.4641 -0.5 0.0 0
M  V30 18 C 3.5686 -1.4945 0.0 0
M  V30 19 C 2.598 0.0 0.0 0
M  V30 20 C 2.8254 -2.1636 0.0 0
M  V30 21 O 1.732 -0.5 0.0 0
M  V30 22 N 2.598 0.9999 0.0 0
M  V30 23 F 3.4946 -2.9067 0.0 0
M  V30 24 F 2.0823 -2.8327 0.0 0
M  V30 25 F 2.1563 -1.4205 0.0 0
M  V30 26 C 1.732 1.4999 0.0 0
M  V30 27 C 3.4641 1.4999 0.0 0
M  V30 28 C 1.732 2.4999 0.0 0
M  V30 29 C 0.866 2.9999 0.0 0
M  V30 30 C 2.598 3.0 0.0 0
M  V30 31 C 0.866 3.9999 0.0 0
M  V30 32 C 2.598 4.0 0.0 0
M  V30 33 F 0.0 4.4999 0.0 0
M  V30 34 C 1.732 4.4999 0.0 0
M  V30 END ATOM
M  V30 BEGIN BOND
M  V30 1 2 1 2
M  V30 2 2 1 3
M  V30 3 1 1 4
M  V30 4 1 1 5
M  V30 5 2 4 6
M  V30 6 1 4 7
M  V30 7 1 6 8
M  V30 8 1 6 9
M  V30 9 2 7 10
M  V30 10 2 8 11
M  V30 11 1 8 12
M  V30 12 2 9 13
M  V30 13 1 13 14
M  V30 14 1 14 15
M  V30 15 2 14 16
M  V30 16 1 15 17
M  V30 17 1 16 18
M  V30 18 1 17 19
M  V30 19 1 18 20
M  V30 20 2 19 21
M  V30 21 1 19 22
M  V30 22 1 20 23
M  V30 23 1 20 24
M  V30 24 1 20 25
M  V30 25 1 22 26
M  V30 26 1 22 27
M  V30 27 1 26 28
M  V30 28 2 28 29
M  V30 29 1 28 30
M  V30 30 1 29 31
M  V30 31 2 30 32
M  V30 32 1 31 33
M  V30 33 2 31 34
M  V30 34 1 10 13
M  V30 35 2 17 18
M  V30 36 1 32 34
M  V30 END BOND
M  V30 END CTAB
M  END
>  <Molecule ChEMBL ID>
CHEMBL2070238

>  <Smiles>
CN(Cc1cccc(F)c1)C(=O)c1sc(-c2ccc(S(C)(=O)=O)c([N+](=O)[O-])c2)nc1C(F)(F)F

>  <IC50_nM>
60000

>  <Assay Description>
Antagonist activity at human PPAR-gamma assessed as inhibition of interaction with DRIP-2 by fluorescence polarisation assay

$$$$
CHEMBL2070090
Actelion Java MolfileCreator 2.0

  0  0  0  0  0  0              0 V3000
M  V30 BEGIN CTAB
M  V30 COUNTS 30 32 0 0 0
M  V30 BEGIN ATOM
M  V30 1 S 9.8908 -0.0817 0.0 0
M  V30 2 O 9.7863 -1.0762 0.0 0
M  V30 3 O 9.9954 0.9128 0.0 0
M  V30 4 C 8.8963 0.0228 0.0 0
M  V30 5 C 10.8854 -0.1862 0.0 0
M  V30 6 C 8.4896 0.9363 0.0 0
M  V30 7 C 8.3085 -0.7861 0.0 0
M  V30 8 N 9.0774 1.7453 0.0 0 CHG=1
M  V30 9 C 7.4951 1.0408 0.0 0
M  V30 10 C 7.314 -0.6816 0.0 0
M  V30 11 O 10.0719 1.6408 0.0 0
M  V30 12 O 8.6706 2.6589 0.0 0 CHG=-1
M  V30 13 C 6.9073 0.2318 0.0 0
M  V30 14 C 5.9128 0.3364 0.0 0
M  V30 15 S 5.4128 1.2024 0.0 0
M  V30 16 N 5.2436 -0.4067 0.0 0
M  V30 17 C 4.4346 0.9945 0.0 0
M  V30 18 C 4.3301 0.0 0.0 0
M  V30 19 C 3.4641 -0.5 0.0 0
M  V30 20 O 3.4641 -1.5 0.0 0
M  V30 21 N 2.598 0.0 0.0 0
M  V30 22 C 2.598 1.0 0.0 0
M  V30 23 C 1.732 -0.5 0.0 0
M  V30 24 C 3.4641 1.5 0.0 0
M  V30 25 C 1.732 1.4999 0.0 0
M  V30 26 C 0.866 0.0 0.0 0
M  V30 27 C 3.4641 2.5 0.0 0
M  V30 28 C 1.732 2.5 0.0 0
M  V30 29 C 0.0 -0.5 0.0 0
M  V30 30 C 2.598 3.0 0.0 0
M  V30 END ATOM
M  V30 BEGIN BOND
M  V30 1 2 1 2
M  V30 2 2 1 3
M  V30 3 1 1 4
M  V30 4 1 1 5
M  V30 5 2 4 6
M  V30 6 1 4 7
M  V30 7 1 6 8
M  V30 8 1 6 9
M  V30 9 2 7 10
M  V30 10 2 8 11
M  V30 11 1 8 12
M  V30 12 2 9 13
M  V30 13 1 13 14
M  V30 14 1 14 15
M  V30 15 2 14 16
M  V30 16 1 15 17
M  V30 17 1 16 18
M  V30 18 1 18 19
M  V30 19 2 19 20
M  V30 20 1 19 21
M  V30 21 1 21 22
M  V30 22 1 21 23
M  V30 23 2 22 24
M  V30 24 1 22 25
M  V30 25 1 23 26
M  V30 26 1 24 27
M  V30 27 2 25 28
M  V30 28 1 26 29
M  V30 29 2 27 30
M  V30 30 1 10 13
M  V30 31 2 17 18
M  V30 32 1 28 30
M  V30 END BOND
M  V30 END CTAB
M  END
>  <Molecule ChEMBL ID>
CHEMBL2070090

>  <Smiles>
CCCN(C(=O)c1csc(-c2ccc(S(C)(=O)=O)c([N+](=O)[O-])c2)n1)c1ccccc1

>  <IC50_nM>
60000

>  <Assay Description>
Antagonist activity at human PPAR-gamma assessed as inhibition of interaction with DRIP-2 by fluorescence polarisation assay

$$$$
CHEMBL2070233
Actelion Java MolfileCreator 2.0

  0  0  0  0  0  0              0 V3000
M  V30 BEGIN CTAB
M  V30 COUNTS 28 30 0 0 0
M  V30 BEGIN ATOM
M  V30 1 S 2.598 1.0 0.0 0
M  V30 2 O 3.598 1.0 0.0 0
M  V30 3 O 1.598 0.9999 0.0 0
M  V30 4 C 2.598 0.0 0.0 0
M  V30 5 C 2.598 2.0 0.0 0
M  V30 6 C 1.732 -0.5 0.0 0
M  V30 7 C 3.4641 -0.4999 0.0 0
M  V30 8 N 0.866 0.0 0.0 0 CHG=1
M  V30 9 C 1.732 -1.5 0.0 0
M  V30 10 C 3.4641 -1.4999 0.0 0
M  V30 11 O 0.866 1.0 0.0 0
M  V30 12 O 0.0 -0.5 0.0 0 CHG=-1
M  V30 13 C 2.598 -1.9999 0.0 0
M  V30 14 C 2.598 -2.9999 0.0 0
M  V30 15 S 1.789 -3.5877 0.0 0
M  V30 16 N 3.407 -3.5877 0.0 0
M  V30 17 C 2.098 -4.5388 0.0 0
M  V30 18 C 3.098 -4.5388 0.0 0
M  V30 19 C 1.5102 -5.3478 0.0 0
M  V30 20 C 3.6858 -5.3478 0.0 0
M  V30 21 O 0.5157 -5.2433 0.0 0
M  V30 22 N 1.917 -6.2614 0.0 0
M  V30 23 C 4.6803 -5.2433 0.0 0
M  V30 24 C 1.3292 -7.0704 0.0 0
M  V30 25 C 2.9115 -6.3659 0.0 0
M  V30 26 C 1.7359 -7.9839 0.0 0
M  V30 27 C 3.3182 -7.2794 0.0 0
M  V30 28 C 2.7305 -8.0884 0.0 0
M  V30 END ATOM
M  V30 BEGIN BOND
M  V30 1 2 1 2
M  V30 2 2 1 3
M  V30 3 1 1 4
M  V30 4 1 1 5
M  V30 5 2 4 6
M  V30 6 1 4 7
M  V30 7 1 6 8
M  V30 8 1 6 9
M  V30 9 2 7 10
M  V30 10 2 8 11
M  V30 11 1 8 12
M  V30 12 2 9 13
M  V30 13 1 13 14
M  V30 14 1 14 15
M  V30 15 2 14 16
M  V30 16 1 15 17
M  V30 17 1 16 18
M  V30 18 1 17 19
M  V30 19 1 18 20
M  V30 20 2 19 21
M  V30 21 1 19 22
M  V30 22 1 20 23
M  V30 23 1 22 24
M  V30 24 1 22 25
M  V30 25 1 24 26
M  V30 26 1 25 27
M  V30 27 1 26 28
M  V30 28 1 10 13
M  V30 29 2 17 18
M  V30 30 1 27 28
M  V30 END BOND
M  V30 END CTAB
M  END
>  <Molecule ChEMBL ID>
CHEMBL2070233

>  <Smiles>
CCc1nc(-c2ccc(S(C)(=O)=O)c([N+](=O)[O-])c2)sc1C(=O)N1CCCCC1

>  <IC50_nM>
60000

>  <Assay Description>
Antagonist activity at human PPAR-gamma assessed as inhibition of interaction with DRIP-2 by fluorescence polarisation assay

$$$$
CHEMBL2070235
Actelion Java MolfileCreator 2.0

  0  0  0  0  0  0              0 V3000
M  V30 BEGIN CTAB
M  V30 COUNTS 27 29 0 0 0
M  V30 BEGIN ATOM
M  V30 1 S 2.598 1.0 0.0 0
M  V30 2 O 3.598 1.0 0.0 0
M  V30 3 O 1.598 0.9999 0.0 0
M  V30 4 C 2.598 0.0 0.0 0
M  V30 5 C 2.598 2.0 0.0 0
M  V30 6 C 1.732 -0.5 0.0 0
M  V30 7 C 3.4641 -0.4999 0.0 0
M  V30 8 N 0.866 0.0 0.0 0 CHG=1
M  V30 9 C 1.732 -1.5 0.0 0
M  V30 10 C 3.4641 -1.4999 0.0 0
M  V30 11 O 0.866 1.0 0.0 0
M  V30 12 O 0.0 -0.5 0.0 0 CHG=-1
M  V30 13 C 2.598 -1.9999 0.0 0
M  V30 14 C 2.598 -2.9999 0.0 0
M  V30 15 S 1.789 -3.5877 0.0 0
M  V30 16 N 3.407 -3.5877 0.0 0
M  V30 17 C 2.098 -4.5388 0.0 0
M  V30 18 C 3.098 -4.5388 0.0 0
M  V30 19 C 1.5102 -5.3478 0.0 0
M  V30 20 C 3.6858 -5.3478 0.0 0
M  V30 21 O 0.5157 -5.2433 0.0 0
M  V30 22 N 1.917 -6.2614 0.0 0
M  V30 23 C 1.3292 -7.0704 0.0 0
M  V30 24 C 2.9115 -6.3659 0.0 0
M  V30 25 C 1.7359 -7.9839 0.0 0
M  V30 26 C 3.3182 -7.2794 0.0 0
M  V30 27 C 2.7305 -8.0884 0.0 0
M  V30 END ATOM
M  V30 BEGIN BOND
M  V30 1 2 1 2
M  V30 2 2 1 3
M  V30 3 1 1 4
M  V30 4 1 1 5
M  V30 5 2 4 6
M  V30 6 1 4 7
M  V30 7 1 6 8
M  V30 8 1 6 9
M  V30 9 2 7 10
M  V30 10 2 8 11
M  V30 11 1 8 12
M  V30 12 2 9 13
M  V30 13 1 13 14
M  V30 14 1 14 15
M  V30 15 2 14 16
M  V30 16 1 15 17
M  V30 17 1 16 18
M  V30 18 1 17 19
M  V30 19 1 18 20
M  V30 20 2 19 21
M  V30 21 1 19 22
M  V30 22 1 22 23
M  V30 23 1 22 24
M  V30 24 1 23 25
M  V30 25 1 24 26
M  V30 26 1 25 27
M  V30 27 1 10 13
M  V30 28 2 17 18
M  V30 29 1 26 27
M  V30 END BOND
M  V30 END CTAB
M  END
>  <Molecule ChEMBL ID>
CHEMBL2070235

>  <Smiles>
Cc1nc(-c2ccc(S(C)(=O)=O)c([N+](=O)[O-])c2)sc1C(=O)N1CCCCC1

>  <IC50_nM>
60000

>  <Assay Description>
Antagonist activity at human PPAR-gamma assessed as inhibition of interaction with DRIP-2 by fluorescence polarisation assay

$$$$
CHEMBL2070098
Actelion Java MolfileCreator 2.0

  0  0  0  0  0  0              0 V3000
M  V30 BEGIN CTAB
M  V30 COUNTS 30 32 0 0 0
M  V30 BEGIN ATOM
M  V30 1 S 2.598 1.0 0.0 0
M  V30 2 O 3.598 1.0 0.0 0
M  V30 3 O 1.598 0.9999 0.0 0
M  V30 4 C 2.598 0.0 0.0 0
M  V30 5 C 2.598 2.0 0.0 0
M  V30 6 C 1.732 -0.5 0.0 0
M  V30 7 C 3.4641 -0.4999 0.0 0
M  V30 8 N 0.866 0.0 0.0 0 CHG=1
M  V30 9 C 1.732 -1.5 0.0 0
M  V30 10 C 3.4641 -1.4999 0.0 0
M  V30 11 O 0.866 1.0 0.0 0
M  V30 12 O 0.0 -0.5 0.0 0 CHG=-1
M  V30 13 C 2.598 -1.9999 0.0 0
M  V30 14 C 2.598 -2.9999 0.0 0
M  V30 15 S 1.789 -3.5877 0.0 0
M  V30 16 N 3.407 -3.5877 0.0 0
M  V30 17 C 2.098 -4.5388 0.0 0
M  V30 18 C 3.098 -4.5388 0.0 0
M  V30 19 C 1.5102 -5.3478 0.0 0
M  V30 20 C 3.6858 -5.3478 0.0 0
M  V30 21 O 1.917 -6.2614 0.0 0
M  V30 22 N 0.5157 -5.2433 0.0 0
M  V30 23 F 4.4948 -4.76 0.0 0
M  V30 24 F 4.2736 -6.1568 0.0 0
M  V30 25 F 2.8768 -5.9356 0.0 0
M  V30 26 C -0.072 -6.0523 0.0 0
M  V30 27 C 0.109 -4.3297 0.0 0
M  V30 28 C -1.0665 -5.9478 0.0 0
M  V30 29 C -0.8854 -4.2252 0.0 0
M  V30 30 C -1.4732 -5.0342 0.0 0
M  V30 END ATOM
M  V30 BEGIN BOND
M  V30 1 2 1 2
M  V30 2 2 1 3
M  V30 3 1 1 4
M  V30 4 1 1 5
M  V30 5 2 4 6
M  V30 6 1 4 7
M  V30 7 1 6 8
M  V30 8 1 6 9
M  V30 9 2 7 10
M  V30 10 2 8 11
M  V30 11 1 8 12
M  V30 12 2 9 13
M  V30 13 1 13 14
M  V30 14 1 14 15
M  V30 15 2 14 16
M  V30 16 1 15 17
M  V30 17 1 16 18
M  V30 18 1 17 19
M  V30 19 1 18 20
M  V30 20 2 19 21
M  V30 21 1 19 22
M  V30 22 1 20 23
M  V30 23 1 20 24
M  V30 24 1 20 25
M  V30 25 1 22 26
M  V30 26 1 22 27
M  V30 27 1 26 28
M  V30 28 1 27 29
M  V30 29 1 28 30
M  V30 30 1 10 13
M  V30 31 2 17 18
M  V30 32 1 29 30
M  V30 END BOND
M  V30 END CTAB
M  END
>  <Molecule ChEMBL ID>
CHEMBL2070098

>  <Smiles>
CS(=O)(=O)c1ccc(-c2nc(C(F)(F)F)c(C(=O)N3CCCCC3)s2)cc1[N+](=O)[O-]

>  <IC50_nM>
60000

>  <Assay Description>
Antagonist activity at human PPAR-gamma assessed as inhibition of interaction with DRIP-2 by fluorescence polarisation assay

$$$$
CHEMBL2070093
Actelion Java MolfileCreator 2.0

  0  0  0  0  0  0              0 V3000
M  V30 BEGIN CTAB
M  V30 COUNTS 34 37 0 0 0
M  V30 BEGIN ATOM
M  V30 1 S 3.8971 1.5 0.0 0
M  V30 2 O 5.3971 1.5 0.0 0
M  V30 3 O 2.3971 1.5 0.0 0
M  V30 4 C 3.8971 0.0 0.0 0
M  V30 5 C 3.8971 3.0 0.0 0
M  V30 6 C 2.598 -0.75 0.0 0
M  V30 7 C 5.1961 -0.7499 0.0 0
M  V30 8 N 1.299 0.0 0.0 0 CHG=1
M  V30 9 C 2.598 -2.25 0.0 0
M  V30 10 C 5.1961 -2.2499 0.0 0
M  V30 11 O 1.299 1.5 0.0 0
M  V30 12 O 0.0 -0.75 0.0 0 CHG=-1
M  V30 13 C 3.8971 -2.9999 0.0 0
M  V30 14 C 3.8971 -4.5 0.0 0
M  V30 15 S 2.6835 -5.3816 0.0 0
M  V30 16 N 5.1106 -5.3816 0.0 0
M  V30 17 C 3.1471 -6.8082 0.0 0
M  V30 18 C 4.6471 -6.8082 0.0 0
M  V30 19 C 2.2654 -8.0217 0.0 0
M  V30 20 C 5.5287 -8.0217 0.0 0
M  V30 21 O 2.8755 -9.3921 0.0 0
M  V30 22 N 0.7736 -7.8649 0.0 0
M  V30 23 F 6.7423 -7.1401 0.0 0
M  V30 24 F 6.4104 -9.2353 0.0 0
M  V30 25 F 4.3152 -8.9034 0.0 0
M  V30 26 C 0.0236 -6.5659 0.0 0
M  V30 27 C -0.23 -8.9797 0.0 0 CFG=2
M  V30 28 C -1.4435 -6.8778 0.0 0
M  V30 29 C 0.4871 -5.1393 0.0 0
M  V30 30 C -1.6003 -8.3696 0.0 0
M  V30 31 C 0.0818 -10.4469 0.0 0
M  V30 32 C -2.4472 -5.7631 0.0 0
M  V30 33 C -0.5165 -4.0246 0.0 0
M  V30 34 C -1.9837 -4.3365 0.0 0
M  V30 END ATOM
M  V30 BEGIN BOND
M  V30 1 2 1 2
M  V30 2 2 1 3
M  V30 3 1 1 4
M  V30 4 1 1 5
M  V30 5 2 4 6
M  V30 6 1 4 7
M  V30 7 1 6 8
M  V30 8 1 6 9
M  V30 9 2 7 10
M  V30 10 2 8 11
M  V30 11 1 8 12
M  V30 12 2 9 13
M  V30 13 1 13 14
M  V30 14 1 14 15
M  V30 15 2 14 16
M  V30 16 1 15 17
M  V30 17 1 16 18
M  V30 18 1 17 19
M  V30 19 1 18 20
M  V30 20 2 19 21
M  V30 21 1 19 22
M  V30 22 1 20 23
M  V30 23 1 20 24
M  V30 24 1 20 25
M  V30 25 1 22 26
M  V30 26 1 22 27
M  V30 27 2 26 28
M  V30 28 1 26 29
M  V30 29 1 27 30
M  V30 30 1 27 31 CFG=1
M  V30 31 1 28 32
M  V30 32 2 29 33
M  V30 33 2 32 34
M  V30 34 1 10 13
M  V30 35 2 17 18
M  V30 36 1 28 30
M  V30 37 1 33 34
M  V30 END BOND
M  V30 BEGIN COLLECTION
M  V30 MDLV30/STERAC1 ATOMS=(1 27)
M  V30 END COLLECTION
M  V30 END CTAB
M  END
>  <Molecule ChEMBL ID>
CHEMBL2070093

>  <Smiles>
CC1Cc2ccccc2N1C(=O)c1sc(-c2ccc(S(C)(=O)=O)c([N+](=O)[O-])c2)nc1C(F)(F)F

>  <IC50_nM>
60000

>  <Assay Description>
Antagonist activity at human PPAR-gamma assessed as inhibition of interaction with DRIP-2 by fluorescence polarisation assay

$$$$
CHEMBL2403509
Actelion Java MolfileCreator 2.0

  0  0  0  0  0  0              0 V3000
M  V30 BEGIN CTAB
M  V30 COUNTS 31 33 0 0 0
M  V30 BEGIN ATOM
M  V30 1 O 9.0932 1.5 0.0 0
M  V30 2 C 9.0932 0.0 0.0 0
M  V30 3 N 10.3923 -0.75 0.0 0
M  V30 4 C 7.7942 -0.75 0.0 0
M  V30 5 C 10.3923 -2.25 0.0 0
M  V30 6 C 6.4951 0.0 0.0 0
M  V30 7 C 7.7942 -2.25 0.0 0
M  V30 8 C 11.6913 -3.0 0.0 0
M  V30 9 C 5.1961 -0.75 0.0 0
M  V30 10 C 6.4951 -3.0 0.0 0
M  V30 11 C 11.6913 -4.5 0.0 0
M  V30 12 C 12.9903 -2.25 0.0 0
M  V30 13 C 5.1961 -2.25 0.0 0
M  V30 14 C 3.8971 0.0 0.0 0
M  V30 15 C 12.9903 -5.25 0.0 0
M  V30 16 C 14.2894 -3.0 0.0 0
M  V30 17 N 2.598 -0.75 0.0 0
M  V30 18 C 14.2894 -4.5 0.0 0
M  V30 19 C 1.299 0.0 0.0 0
M  V30 20 C 15.5884 -5.25 0.0 0
M  V30 21 O 1.299 1.5 0.0 0
M  V30 22 C 0.0 -0.75 0.0 0
M  V30 23 C 16.8874 -4.5 0.0 0
M  V30 24 C -1.299 0.0 0.0 0
M  V30 25 C 0.0 -2.25 0.0 0
M  V30 26 C 18.1865 -5.25 0.0 0
M  V30 27 C -2.598 -0.7499 0.0 0
M  V30 28 C -1.299 -2.9999 0.0 0
M  V30 29 O 18.1865 -6.75 0.0 0
M  V30 30 O 19.4855 -4.5 0.0 0
M  V30 31 C -2.598 -2.2499 0.0 0
M  V30 END ATOM
M  V30 BEGIN BOND
M  V30 1 2 1 2
M  V30 2 1 2 3
M  V30 3 1 2 4
M  V30 4 1 3 5
M  V30 5 2 4 6
M  V30 6 1 4 7
M  V30 7 1 5 8
M  V30 8 1 6 9
M  V30 9 2 7 10
M  V30 10 2 8 11
M  V30 11 1 8 12
M  V30 12 2 9 13
M  V30 13 1 9 14
M  V30 14 1 11 15
M  V30 15 2 12 16
M  V30 16 1 14 17
M  V30 17 2 15 18
M  V30 18 1 17 19
M  V30 19 1 18 20
M  V30 20 2 19 21
M  V30 21 1 19 22
M  V30 22 1 20 23
M  V30 23 2 22 24
M  V30 24 1 22 25
M  V30 25 1 23 26
M  V30 26 1 24 27
M  V30 27 2 25 28
M  V30 28 2 26 29
M  V30 29 1 26 30
M  V30 30 2 27 31
M  V30 31 1 10 13
M  V30 32 1 16 18
M  V30 33 1 28 31
M  V30 END BOND
M  V30 END CTAB
M  END
>  <Molecule ChEMBL ID>
CHEMBL2403509

>  <Smiles>
O=C(O)CCc1ccc(CNC(=O)c2cccc(CNC(=O)c3ccccc3)c2)cc1

>  <IC50_nM>
62700

>  <Assay Description>
Binding affinity to GST-tagged human PPARgamma LBD by ligand displacement assay

$$$$
CHEMBL5197292
Actelion Java MolfileCreator 2.0

  0  0  0  0  0  0              0 V3000
M  V30 BEGIN CTAB
M  V30 COUNTS 32 35 0 0 0
M  V30 BEGIN ATOM
M  V30 1 Cl 2.0253 -1.7449 0.0 0
M  V30 2 C 2.9763 -2.054 0.0 0
M  V30 3 C 3.7195 -1.3848 0.0 0
M  V30 4 C 3.1843 -3.0321 0.0 0
M  V30 5 C 4.6705 -1.6939 0.0 0
M  V30 6 C 3.5116 -0.4067 0.0 0
M  V30 7 C 4.1353 -3.3411 0.0 0
M  V30 8 C 4.8785 -2.672 0.0 0
M  V30 9 C 5.4137 -1.0247 0.0 0
M  V30 10 N 4.1807 0.3364 0.0 0
M  V30 11 C 2.598 0.0 0.0 0
M  V30 12 F 6.0828 -1.7679 0.0 0
M  V30 13 F 6.1568 -0.3556 0.0 0
M  V30 14 F 4.7446 -0.2816 0.0 0
M  V30 15 O 3.6807 1.2024 0.0 0
M  V30 16 C 2.7026 0.9945 0.0 0
M  V30 17 C 1.732 -0.5 0.0 0
M  V30 18 C 1.9594 1.6636 0.0 0
M  V30 19 O 0.866 0.0 0.0 0
M  V30 20 C 2.0639 2.6581 0.0 0
M  V30 21 C 0.9813 1.4557 0.0 0
M  V30 22 C 0.0 -0.5 0.0 0
M  V30 23 N 1.1504 3.0649 0.0 0
M  V30 24 C 0.4813 2.3217 0.0 0
M  V30 25 C -0.866 0.0 0.0 0
M  V30 26 C 0.0 -1.4999 0.0 0
M  V30 27 C -1.732 -0.4999 0.0 0
M  V30 28 C -0.866 -1.9999 0.0 0
M  V30 29 C -1.732 -1.4999 0.0 0
M  V30 30 C -2.598 -1.9999 0.0 0
M  V30 31 O -3.4641 -1.4999 0.0 0
M  V30 32 O -2.598 -2.9999 0.0 0
M  V30 END ATOM
M  V30 BEGIN BOND
M  V30 1 1 1 2
M  V30 2 2 2 3
M  V30 3 1 2 4
M  V30 4 1 3 5
M  V30 5 1 3 6
M  V30 6 2 4 7
M  V30 7 2 5 8
M  V30 8 1 5 9
M  V30 9 2 6 10
M  V30 10 1 6 11
M  V30 11 1 9 12
M  V30 12 1 9 13
M  V30 13 1 9 14
M  V30 14 1 10 15
M  V30 15 2 11 16
M  V30 16 1 11 17
M  V30 17 1 16 18
M  V30 18 1 17 19
M  V30 19 2 18 20
M  V30 20 1 18 21
M  V30 21 1 19 22
M  V30 22 1 20 23
M  V30 23 2 21 24
M  V30 24 2 22 25
M  V30 25 1 22 26
M  V30 26 1 25 27
M  V30 27 2 26 28
M  V30 28 2 27 29
M  V30 29 1 29 30
M  V30 30 2 30 31
M  V30 31 1 30 32
M  V30 32 1 7 8
M  V30 33 1 15 16
M  V30 34 1 23 24
M  V30 35 1 28 29
M  V30 END BOND
M  V30 END CTAB
M  END
>  <Molecule ChEMBL ID>
CHEMBL5197292

>  <Smiles>
O=C(O)c1ccc(OCc2c(-c3c(Cl)cccc3C(F)(F)F)noc2-c2cc[nH]c2)cc1

>  <IC50_nM>
63000

>  <Assay Description>
Inverse agonist activity at His6-tagged PPARgamma LBD (unknown origin) assessed as N-terminal biotinylated PGC1a coactivator peptide recruitment in presence of rosiglitazone by TR-FRET assay

$$$$
CHEMBL5200206
Actelion Java MolfileCreator 2.0

  0  0  0  0  0  0              0 V3000
M  V30 BEGIN CTAB
M  V30 COUNTS 32 35 0 0 0
M  V30 BEGIN ATOM
M  V30 1 Cl 2.0253 -1.7449 0.0 0
M  V30 2 C 2.9763 -2.054 0.0 0
M  V30 3 C 3.7195 -1.3848 0.0 0
M  V30 4 C 3.1843 -3.0321 0.0 0
M  V30 5 C 4.6705 -1.6939 0.0 0
M  V30 6 C 3.5116 -0.4067 0.0 0
M  V30 7 C 4.1353 -3.3411 0.0 0
M  V30 8 C 4.8785 -2.672 0.0 0
M  V30 9 C 5.4137 -1.0247 0.0 0
M  V30 10 N 4.1807 0.3364 0.0 0
M  V30 11 C 2.598 0.0 0.0 0
M  V30 12 F 6.0828 -1.7679 0.0 0
M  V30 13 F 6.1568 -0.3556 0.0 0
M  V30 14 F 4.7446 -0.2816 0.0 0
M  V30 15 O 3.6807 1.2024 0.0 0
M  V30 16 C 2.7026 0.9945 0.0 0
M  V30 17 C 1.732 -0.5 0.0 0
M  V30 18 C 1.9594 1.6636 0.0 0
M  V30 19 C 0.866 0.0 0.0 0
M  V30 20 C 2.0639 2.6581 0.0 0
M  V30 21 C 0.9813 1.4557 0.0 0
M  V30 22 C 0.0 -0.5 0.0 0
M  V30 23 N 1.1504 3.0649 0.0 0
M  V30 24 C 0.4813 2.3217 0.0 0
M  V30 25 C -0.866 0.0 0.0 0
M  V30 26 C 0.0 -1.4999 0.0 0
M  V30 27 C -1.732 -0.4999 0.0 0
M  V30 28 C -0.866 -1.9999 0.0 0
M  V30 29 C -1.732 -1.4999 0.0 0
M  V30 30 C -2.598 -1.9999 0.0 0
M  V30 31 O -3.4641 -1.4999 0.0 0
M  V30 32 O -2.598 -2.9999 0.0 0
M  V30 END ATOM
M  V30 BEGIN BOND
M  V30 1 1 1 2
M  V30 2 2 2 3
M  V30 3 1 2 4
M  V30 4 1 3 5
M  V30 5 1 3 6
M  V30 6 2 4 7
M  V30 7 2 5 8
M  V30 8 1 5 9
M  V30 9 2 6 10
M  V30 10 1 6 11
M  V30 11 1 9 12
M  V30 12 1 9 13
M  V30 13 1 9 14
M  V30 14 1 10 15
M  V30 15 2 11 16
M  V30 16 1 11 17
M  V30 17 1 16 18
M  V30 18 2 17 19
M  V30 19 2 18 20
M  V30 20 1 18 21
M  V30 21 1 19 22
M  V30 22 1 20 23
M  V30 23 2 21 24
M  V30 24 2 22 25
M  V30 25 1 22 26
M  V30 26 1 25 27
M  V30 27 2 26 28
M  V30 28 2 27 29
M  V30 29 1 29 30
M  V30 30 2 30 31
M  V30 31 1 30 32
M  V30 32 1 7 8
M  V30 33 1 15 16
M  V30 34 1 23 24
M  V30 35 1 28 29
M  V30 END BOND
M  V30 END CTAB
M  END
>  <Molecule ChEMBL ID>
CHEMBL5200206

>  <Smiles>
O=C(O)c1ccc(/C=C/c2c(-c3c(Cl)cccc3C(F)(F)F)noc2-c2cc[nH]c2)cc1

>  <IC50_nM>
64000

>  <Assay Description>
Inverse agonist activity at His6-tagged PPARgamma LBD (unknown origin) assessed as N-terminal biotinylated PGC1a coactivator peptide recruitment in presence of rosiglitazone by TR-FRET assay

$$$$
CHEMBL5177875
Actelion Java MolfileCreator 2.0

  0  0  0  0  0  0              0 V3000
M  V30 BEGIN CTAB
M  V30 COUNTS 33 36 0 0 0
M  V30 BEGIN ATOM
M  V30 1 Cl 2.0253 -1.7449 0.0 0
M  V30 2 C 2.9763 -2.054 0.0 0
M  V30 3 C 3.7195 -1.3848 0.0 0
M  V30 4 C 3.1843 -3.0321 0.0 0
M  V30 5 C 4.6705 -1.6939 0.0 0
M  V30 6 C 3.5116 -0.4067 0.0 0
M  V30 7 C 4.1353 -3.3411 0.0 0
M  V30 8 C 4.8785 -2.672 0.0 0
M  V30 9 C 5.4137 -1.0247 0.0 0
M  V30 10 N 4.1807 0.3364 0.0 0
M  V30 11 C 2.598 0.0 0.0 0
M  V30 12 F 6.0828 -1.7679 0.0 0
M  V30 13 F 6.1568 -0.3556 0.0 0
M  V30 14 F 4.7446 -0.2816 0.0 0
M  V30 15 O 3.6807 1.2024 0.0 0
M  V30 16 C 2.7026 0.9945 0.0 0
M  V30 17 C 1.732 -0.5 0.0 0
M  V30 18 C 1.9594 1.6636 0.0 0
M  V30 19 O 0.866 0.0 0.0 0
M  V30 20 C 2.0639 2.6581 0.0 0
M  V30 21 C 0.9813 1.4557 0.0 0
M  V30 22 C 0.0 -0.5 0.0 0
M  V30 23 N 1.1504 3.0649 0.0 0
M  V30 24 C 0.4813 2.3217 0.0 0
M  V30 25 C -0.866 0.0 0.0 0
M  V30 26 C 0.0 -1.4999 0.0 0
M  V30 27 C -1.732 -0.4999 0.0 0
M  V30 28 C -0.866 -1.9999 0.0 0
M  V30 29 F -2.598 0.0 0.0 0
M  V30 30 C -1.732 -1.4999 0.0 0
M  V30 31 C -2.598 -1.9999 0.0 0
M  V30 32 O -3.4641 -1.4999 0.0 0
M  V30 33 O -2.598 -2.9999 0.0 0
M  V30 END ATOM
M  V30 BEGIN BOND
M  V30 1 1 1 2
M  V30 2 2 2 3
M  V30 3 1 2 4
M  V30 4 1 3 5
M  V30 5 1 3 6
M  V30 6 2 4 7
M  V30 7 2 5 8
M  V30 8 1 5 9
M  V30 9 2 6 10
M  V30 10 1 6 11
M  V30 11 1 9 12
M  V30 12 1 9 13
M  V30 13 1 9 14
M  V30 14 1 10 15
M  V30 15 2 11 16
M  V30 16 1 11 17
M  V30 17 1 16 18
M  V30 18 1 17 19
M  V30 19 2 18 20
M  V30 20 1 18 21
M  V30 21 1 19 22
M  V30 22 1 20 23
M  V30 23 2 21 24
M  V30 24 2 22 25
M  V30 25 1 22 26
M  V30 26 1 25 27
M  V30 27 2 26 28
M  V30 28 1 27 29
M  V30 29 2 27 30
M  V30 30 1 30 31
M  V30 31 2 31 32
M  V30 32 1 31 33
M  V30 33 1 7 8
M  V30 34 1 15 16
M  V30 35 1 23 24
M  V30 36 1 28 30
M  V30 END BOND
M  V30 END CTAB
M  END
>  <Molecule ChEMBL ID>
CHEMBL5177875

>  <Smiles>
O=C(O)c1ccc(OCc2c(-c3c(Cl)cccc3C(F)(F)F)noc2-c2cc[nH]c2)cc1F

>  <IC50_nM>
67000

>  <Assay Description>
Inverse agonist activity at His6-tagged PPARgamma LBD (unknown origin) assessed as N-terminal biotinylated PGC1a coactivator peptide recruitment in presence of rosiglitazone by TR-FRET assay

$$$$
CHEMBL593320
Actelion Java MolfileCreator 2.0

  0  0  0  0  0  0              0 V3000
M  V30 BEGIN CTAB
M  V30 COUNTS 31 34 0 0 0
M  V30 BEGIN ATOM
M  V30 1 O 6.9282 -4.5 0.0 0
M  V30 2 C 6.9282 -3.5 0.0 0
M  V30 3 O 7.7942 -3.0 0.0 0
M  V30 4 C 6.0621 -3.0 0.0 0 CFG=2
M  V30 5 N 5.1961 -3.5 0.0 0
M  V30 6 C 6.0621 -1.9999 0.0 0
M  V30 7 N 4.2826 -3.0932 0.0 0
M  V30 8 N 5.0916 -4.4945 0.0 0
M  V30 9 C 5.1961 -1.4999 0.0 0
M  V30 10 C 3.6134 -3.8364 0.0 0
M  V30 11 C 4.1134 -4.7024 0.0 0
M  V30 12 C 5.1961 -0.5 0.0 0
M  V30 13 C 4.3301 -1.9999 0.0 0
M  V30 14 C 4.3301 0.0 0.0 0
M  V30 15 C 3.4641 -1.5 0.0 0
M  V30 16 C 3.4641 -0.5 0.0 0
M  V30 17 C 2.598 0.0 0.0 0
M  V30 18 C 1.732 -0.5 0.0 0
M  V30 19 C 0.866 0.0 0.0 0
M  V30 20 C 0.0 -0.5 0.0 0
M  V30 21 N -0.9135 -0.0932 0.0 0
M  V30 22 C -0.1045 -1.4945 0.0 0
M  V30 23 C -1.5826 -0.8364 0.0 0
M  V30 24 O -1.0826 -1.7024 0.0 0
M  V30 25 C 0.6386 -2.1636 0.0 0
M  V30 26 C -2.5771 -0.7318 0.0 0
M  V30 27 C -2.9839 0.1816 0.0 0
M  V30 28 C -3.1649 -1.5408 0.0 0
M  V30 29 C -3.9784 0.2861 0.0 0
M  V30 30 C -4.1595 -1.4363 0.0 0
M  V30 31 C -4.5662 -0.5228 0.0 0
M  V30 END ATOM
M  V30 BEGIN BOND
M  V30 1 2 1 2
M  V30 2 1 2 3
M  V30 3 1 2 4
M  V30 4 1 4 5 CFG=3
M  V30 5 1 4 6
M  V30 6 1 5 7
M  V30 7 1 5 8
M  V30 8 1 6 9
M  V30 9 2 7 10
M  V30 10 2 8 11
M  V30 11 2 9 12
M  V30 12 1 9 13
M  V30 13 1 12 14
M  V30 14 2 13 15
M  V30 15 2 14 16
M  V30 16 1 16 17
M  V30 17 1 17 18
M  V30 18 1 18 19
M  V30 19 1 19 20
M  V30 20 1 20 21
M  V30 21 2 20 22
M  V30 22 2 21 23
M  V30 23 1 22 24
M  V30 24 1 22 25
M  V30 25 1 23 26
M  V30 26 2 26 27
M  V30 27 1 26 28
M  V30 28 1 27 29
M  V30 29 2 28 30
M  V30 30 2 29 31
M  V30 31 1 10 11
M  V30 32 1 15 16
M  V30 33 1 23 24
M  V30 34 1 30 31
M  V30 END BOND
M  V30 BEGIN COLLECTION
M  V30 MDLV30/STEABS ATOMS=(1 4)
M  V30 END COLLECTION
M  V30 END CTAB
M  END
>  <Molecule ChEMBL ID>
CHEMBL593320

>  <Smiles>
Cc1oc(-c2ccccc2)nc1CCCc1ccc(C[C@H](C(=O)O)n2nccn2)cc1

>  <IC50_nM>
70000

>  <Assay Description>
Displacement of [3H2]nTZD3 from GST-tagged human PPARgamma expressed in Escherichia coli by SPA

$$$$
CHEMBL3754461
Actelion Java MolfileCreator 2.0

  0  0  0  0  0  0              0 V3000
M  V30 BEGIN CTAB
M  V30 COUNTS 37 40 0 0 0
M  V30 BEGIN ATOM
M  V30 1 O 7.7942 5.9999 0.0 0
M  V30 2 C 6.9282 5.4999 0.0 0
M  V30 3 N 6.0621 5.9999 0.0 0
M  V30 4 N 6.9282 4.4999 0.0 0
M  V30 5 C 5.1961 5.5 0.0 0
M  V30 6 C 6.0621 3.9999 0.0 0
M  V30 7 O 4.3301 6.0 0.0 0
M  V30 8 C 5.1961 4.5 0.0 0
M  V30 9 O 6.0621 3.0 0.0 0
M  V30 10 C 4.3301 3.9999 0.0 0
M  V30 11 C 4.3301 2.9999 0.0 0
M  V30 12 C 3.4641 2.5 0.0 0
M  V30 13 C 5.1961 2.4999 0.0 0
M  V30 14 C 3.4641 1.5 0.0 0
M  V30 15 C 5.1961 1.4999 0.0 0
M  V30 16 C 4.3301 0.9999 0.0 0
M  V30 17 N 4.3301 0.0 0.0 0
M  V30 18 C 5.1961 -0.5 0.0 0
M  V30 19 C 3.4641 -0.5 0.0 0
M  V30 20 C 6.0621 0.0 0.0 0
M  V30 21 C 2.598 0.0 0.0 0
M  V30 22 O 6.9282 -0.5 0.0 0
M  V30 23 O 1.732 -0.5 0.0 0
M  V30 24 C 7.7942 0.0 0.0 0
M  V30 25 C 0.866 0.0 0.0 0
M  V30 26 C 8.6602 -0.5 0.0 0
M  V30 27 C 0.0 -0.5 0.0 0
M  V30 28 C 8.6602 -1.5 0.0 0
M  V30 29 C 9.5262 0.0 0.0 0
M  V30 30 C -0.866 0.0 0.0 0
M  V30 31 C 0.0 -1.4999 0.0 0
M  V30 32 C 9.5262 -2.0 0.0 0
M  V30 33 C 10.3923 -0.5 0.0 0
M  V30 34 C -1.732 -0.4999 0.0 0
M  V30 35 C -0.866 -1.9999 0.0 0
M  V30 36 C 10.3923 -1.5 0.0 0
M  V30 37 C -1.732 -1.4999 0.0 0
M  V30 END ATOM
M  V30 BEGIN BOND
M  V30 1 2 1 2
M  V30 2 1 2 3
M  V30 3 1 2 4
M  V30 4 1 3 5
M  V30 5 1 4 6
M  V30 6 2 5 7
M  V30 7 1 5 8
M  V30 8 2 6 9
M  V30 9 2 8 10
M  V30 10 1 10 11
M  V30 11 2 11 12
M  V30 12 1 11 13
M  V30 13 1 12 14
M  V30 14 2 13 15
M  V30 15 2 14 16
M  V30 16 1 16 17
M  V30 17 1 17 18
M  V30 18 1 17 19
M  V30 19 1 18 20
M  V30 20 1 19 21
M  V30 21 1 20 22
M  V30 22 1 21 23
M  V30 23 1 22 24
M  V30 24 1 23 25
M  V30 25 1 24 26
M  V30 26 1 25 27
M  V30 27 2 26 28
M  V30 28 1 26 29
M  V30 29 2 27 30
M  V30 30 1 27 31
M  V30 31 1 28 32
M  V30 32 2 29 33
M  V30 33 1 30 34
M  V30 34 2 31 35
M  V30 35 2 32 36
M  V30 36 2 34 37
M  V30 37 1 6 8
M  V30 38 1 15 16
M  V30 39 1 33 36
M  V30 40 1 35 37
M  V30 END BOND
M  V30 END CTAB
M  END
>  <Molecule ChEMBL ID>
CHEMBL3754461

>  <Smiles>
O=C1NC(=O)C(=Cc2ccc(N(CCOCc3ccccc3)CCOCc3ccccc3)cc2)C(=O)N1

>  <IC50_nM>
78400

>  <Assay Description>
Binding affinity to GST-tagged human PPAR-gamma receptor by FRET assay

$$$$
CHEMBL4286980
Actelion Java MolfileCreator 2.0

  0  0  0  0  0  0              0 V3000
M  V30 BEGIN CTAB
M  V30 COUNTS 26 28 0 0 0
M  V30 BEGIN ATOM
M  V30 1 S 5.2531 -3.5877 0.0 0
M  V30 2 C 5.5621 -4.5388 0.0 0
M  V30 3 C 6.0621 -3.0 0.0 0
M  V30 4 O 4.9743 -5.3478 0.0 0
M  V30 5 N 6.5621 -4.5388 0.0 0
M  V30 6 C 6.8711 -3.5877 0.0 0
M  V30 7 C 6.0621 -1.9999 0.0 0
M  V30 8 O 7.8222 -3.2787 0.0 0
M  V30 9 C 5.1961 -1.4999 0.0 0
M  V30 10 C 5.1961 -0.5 0.0 0
M  V30 11 C 4.3301 -1.9999 0.0 0
M  V30 12 C 4.3301 0.0 0.0 0
M  V30 13 C 3.4641 -1.5 0.0 0
M  V30 14 C 3.4641 -0.5 0.0 0
M  V30 15 O 2.598 0.0 0.0 0
M  V30 16 C 1.732 -0.5 0.0 0
M  V30 17 C 0.866 0.0 0.0 0 CFG=2
M  V30 18 O 0.866 1.0 0.0 0
M  V30 19 C 0.0 -0.5 0.0 0
M  V30 20 C -0.866 0.0 0.0 0
M  V30 21 C 0.0 -1.4999 0.0 0
M  V30 22 C -1.732 -0.4999 0.0 0
M  V30 23 C -0.866 -1.9999 0.0 0
M  V30 24 O -2.598 0.0 0.0 0
M  V30 25 C -1.732 -1.4999 0.0 0
M  V30 26 C -3.4641 -0.4999 0.0 0
M  V30 END ATOM
M  V30 BEGIN BOND
M  V30 1 1 1 2
M  V30 2 1 1 3
M  V30 3 2 2 4
M  V30 4 1 2 5
M  V30 5 1 3 6
M  V30 6 1 3 7
M  V30 7 2 6 8
M  V30 8 1 7 9
M  V30 9 2 9 10
M  V30 10 1 9 11
M  V30 11 1 10 12
M  V30 12 2 11 13
M  V30 13 2 12 14
M  V30 14 1 14 15
M  V30 15 1 15 16
M  V30 16 1 16 17
M  V30 17 1 17 18 CFG=1
M  V30 18 1 17 19
M  V30 19 2 19 20
M  V30 20 1 19 21
M  V30 21 1 20 22
M  V30 22 2 21 23
M  V30 23 1 22 24
M  V30 24 2 22 25
M  V30 25 1 24 26
M  V30 26 1 5 6
M  V30 27 1 13 14
M  V30 28 1 23 25
M  V30 END BOND
M  V30 BEGIN COLLECTION
M  V30 MDLV30/STEABS ATOMS=(1 17)
M  V30 END COLLECTION
M  V30 END CTAB
M  END
>  <Molecule ChEMBL ID>
CHEMBL4286980

>  <Smiles>
COc1cccc([C@@H](O)COc2ccc(CC3SC(=O)NC3=O)cc2)c1

>  <IC50_nM>
78450

>  <Assay Description>
Competitive displacement of fluorescently labelled PPAR tracer ligand from GST-tagged human PPARgamma ligand binding domain after 1 hr in dark by TR-FRET competitive binding assay

$$$$
CHEMBL4550831
Actelion Java MolfileCreator 2.0

  0  0  0  0  0  0              0 V3000
M  V30 BEGIN CTAB
M  V30 COUNTS 33 36 0 0 0
M  V30 BEGIN ATOM
M  V30 1 Cl 2.0253 -1.7449 0.0 0
M  V30 2 C 2.9763 -2.054 0.0 0
M  V30 3 C 3.7195 -1.3848 0.0 0
M  V30 4 C 3.1843 -3.0321 0.0 0
M  V30 5 C 4.6705 -1.6939 0.0 0
M  V30 6 C 3.5116 -0.4067 0.0 0
M  V30 7 C 4.1353 -3.3411 0.0 0
M  V30 8 C 4.8785 -2.672 0.0 0
M  V30 9 C 5.4137 -1.0247 0.0 0
M  V30 10 N 4.1807 0.3364 0.0 0
M  V30 11 C 2.598 0.0 0.0 0
M  V30 12 F 6.0828 -1.7679 0.0 0
M  V30 13 F 6.1568 -0.3556 0.0 0
M  V30 14 F 4.7446 -0.2816 0.0 0
M  V30 15 O 3.6807 1.2024 0.0 0
M  V30 16 C 2.7026 0.9945 0.0 0
M  V30 17 C 1.732 -0.5 0.0 0
M  V30 18 C 1.9594 1.6636 0.0 0
M  V30 19 N 0.866 0.0 0.0 0
M  V30 20 C 2.1673 2.6418 0.0 0
M  V30 21 C 1.0084 1.3546 0.0 0
M  V30 22 C 0.0 -0.5 0.0 0
M  V30 23 C 1.4242 3.3109 0.0 0
M  V30 24 C 0.2652 2.0237 0.0 0
M  V30 25 C -0.866 0.0 0.0 0
M  V30 26 C 0.0 -1.4999 0.0 0
M  V30 27 C 0.4731 3.0019 0.0 0
M  V30 28 C -1.732 -0.4999 0.0 0
M  V30 29 C -0.866 -1.9999 0.0 0
M  V30 30 C -1.732 -1.4999 0.0 0
M  V30 31 C -2.598 -1.9999 0.0 0
M  V30 32 O -3.4641 -1.4999 0.0 0
M  V30 33 O -2.598 -2.9999 0.0 0
M  V30 END ATOM
M  V30 BEGIN BOND
M  V30 1 1 1 2
M  V30 2 2 2 3
M  V30 3 1 2 4
M  V30 4 1 3 5
M  V30 5 1 3 6
M  V30 6 2 4 7
M  V30 7 2 5 8
M  V30 8 1 5 9
M  V30 9 2 6 10
M  V30 10 1 6 11
M  V30 11 1 9 12
M  V30 12 1 9 13
M  V30 13 1 9 14
M  V30 14 1 10 15
M  V30 15 2 11 16
M  V30 16 1 11 17
M  V30 17 1 16 18
M  V30 18 1 17 19
M  V30 19 2 18 20
M  V30 20 1 18 21
M  V30 21 1 19 22
M  V30 22 1 20 23
M  V30 23 2 21 24
M  V30 24 2 22 25
M  V30 25 1 22 26
M  V30 26 2 23 27
M  V30 27 1 25 28
M  V30 28 2 26 29
M  V30 29 2 28 30
M  V30 30 1 30 31
M  V30 31 2 31 32
M  V30 32 1 31 33
M  V30 33 1 7 8
M  V30 34 1 15 16
M  V30 35 1 24 27
M  V30 36 1 29 30
M  V30 END BOND
M  V30 END CTAB
M  END
>  <Molecule ChEMBL ID>
CHEMBL4550831

>  <Smiles>
O=C(O)c1ccc(NCc2c(-c3c(Cl)cccc3C(F)(F)F)noc2-c2ccccc2)cc1

>  <IC50_nM>
78600

>  <Assay Description>
Inverse agonist activity at His6-tagged PPARgamma LBD (unknown origin) assessed as inhibition of rosiglitazone-induced N-terminal biotinylated co-activator SRC1 box2 peptide recruitment measured after 30 mins by TR-FRET assay

$$$$
CHEMBL5180168
Actelion Java MolfileCreator 2.0

  0  0  0  0  0  0              0 V3000
M  V30 BEGIN CTAB
M  V30 COUNTS 32 35 0 0 0
M  V30 BEGIN ATOM
M  V30 1 Cl 2.0253 -1.7449 0.0 0
M  V30 2 C 2.9763 -2.054 0.0 0
M  V30 3 C 3.7195 -1.3848 0.0 0
M  V30 4 C 3.1843 -3.0321 0.0 0
M  V30 5 C 4.6705 -1.6939 0.0 0
M  V30 6 C 3.5116 -0.4067 0.0 0
M  V30 7 C 4.1353 -3.3411 0.0 0
M  V30 8 C 4.8785 -2.672 0.0 0
M  V30 9 C 5.4137 -1.0247 0.0 0
M  V30 10 N 4.1807 0.3364 0.0 0
M  V30 11 C 2.598 0.0 0.0 0
M  V30 12 F 6.0828 -1.7679 0.0 0
M  V30 13 F 6.1568 -0.3556 0.0 0
M  V30 14 F 4.7446 -0.2816 0.0 0
M  V30 15 O 3.6807 1.2024 0.0 0
M  V30 16 C 2.7026 0.9945 0.0 0
M  V30 17 C 1.732 -0.5 0.0 0
M  V30 18 C 1.9594 1.6636 0.0 0
M  V30 19 O 0.866 0.0 0.0 0
M  V30 20 C 2.0639 2.6581 0.0 0
M  V30 21 C 0.9813 1.4557 0.0 0
M  V30 22 C 0.0 -0.5 0.0 0
M  V30 23 N 1.1504 3.0649 0.0 0
M  V30 24 N 0.4813 2.3217 0.0 0
M  V30 25 C -0.866 0.0 0.0 0
M  V30 26 C 0.0 -1.4999 0.0 0
M  V30 27 C -1.732 -0.4999 0.0 0
M  V30 28 C -0.866 -1.9999 0.0 0
M  V30 29 C -1.732 -1.4999 0.0 0
M  V30 30 C -2.598 -1.9999 0.0 0
M  V30 31 O -3.4641 -1.4999 0.0 0
M  V30 32 O -2.598 -2.9999 0.0 0
M  V30 END ATOM
M  V30 BEGIN BOND
M  V30 1 1 1 2
M  V30 2 2 2 3
M  V30 3 1 2 4
M  V30 4 1 3 5
M  V30 5 1 3 6
M  V30 6 2 4 7
M  V30 7 2 5 8
M  V30 8 1 5 9
M  V30 9 2 6 10
M  V30 10 1 6 11
M  V30 11 1 9 12
M  V30 12 1 9 13
M  V30 13 1 9 14
M  V30 14 1 10 15
M  V30 15 2 11 16
M  V30 16 1 11 17
M  V30 17 1 16 18
M  V30 18 1 17 19
M  V30 19 1 18 20
M  V30 20 2 18 21
M  V30 21 1 19 22
M  V30 22 2 20 23
M  V30 23 1 21 24
M  V30 24 2 22 25
M  V30 25 1 22 26
M  V30 26 1 25 27
M  V30 27 2 26 28
M  V30 28 2 27 29
M  V30 29 1 29 30
M  V30 30 2 30 31
M  V30 31 1 30 32
M  V30 32 1 7 8
M  V30 33 1 15 16
M  V30 34 1 23 24
M  V30 35 1 28 29
M  V30 END BOND
M  V30 END CTAB
M  END
>  <Molecule ChEMBL ID>
CHEMBL5180168

>  <Smiles>
O=C(O)c1ccc(OCc2c(-c3c(Cl)cccc3C(F)(F)F)noc2-c2cn[nH]c2)cc1

>  <IC50_nM>
79000

>  <Assay Description>
Inverse agonist activity at His6-tagged PPARgamma LBD (unknown origin) assessed as N-terminal biotinylated PGC1a coactivator peptide recruitment in presence of rosiglitazone by TR-FRET assay

$$$$
CHEMBL4522217
Actelion Java MolfileCreator 2.0

  0  0  0  0  0  0              0 V3000
M  V30 BEGIN CTAB
M  V30 COUNTS 32 35 0 0 0
M  V30 BEGIN ATOM
M  V30 1 Cl 2.0253 -1.7449 0.0 0
M  V30 2 C 2.9763 -2.054 0.0 0
M  V30 3 C 3.7195 -1.3848 0.0 0
M  V30 4 C 3.1843 -3.0321 0.0 0
M  V30 5 C 4.6705 -1.6939 0.0 0
M  V30 6 C 3.5116 -0.4067 0.0 0
M  V30 7 C 4.1353 -3.3411 0.0 0
M  V30 8 C 4.8785 -2.672 0.0 0
M  V30 9 C 5.4137 -1.0247 0.0 0
M  V30 10 N 4.1807 0.3364 0.0 0
M  V30 11 C 2.598 0.0 0.0 0
M  V30 12 F 6.0828 -1.7679 0.0 0
M  V30 13 F 6.1568 -0.3556 0.0 0
M  V30 14 F 4.7446 -0.2816 0.0 0
M  V30 15 O 3.6807 1.2024 0.0 0
M  V30 16 C 2.7026 0.9945 0.0 0
M  V30 17 C 1.732 -0.5 0.0 0
M  V30 18 C 1.9594 1.6636 0.0 0
M  V30 19 N 0.866 0.0 0.0 0
M  V30 20 C 2.0639 2.6581 0.0 0
M  V30 21 C 0.9813 1.4557 0.0 0
M  V30 22 C 0.0 -0.5 0.0 0
M  V30 23 N 1.1504 3.0649 0.0 0
M  V30 24 C 0.4813 2.3217 0.0 0
M  V30 25 C -0.866 0.0 0.0 0
M  V30 26 C 0.0 -1.4999 0.0 0
M  V30 27 C -1.732 -0.4999 0.0 0
M  V30 28 C -0.866 -1.9999 0.0 0
M  V30 29 C -1.732 -1.4999 0.0 0
M  V30 30 C -2.598 -1.9999 0.0 0
M  V30 31 O -3.4641 -1.4999 0.0 0
M  V30 32 O -2.598 -2.9999 0.0 0
M  V30 END ATOM
M  V30 BEGIN BOND
M  V30 1 1 1 2
M  V30 2 2 2 3
M  V30 3 1 2 4
M  V30 4 1 3 5
M  V30 5 1 3 6
M  V30 6 2 4 7
M  V30 7 2 5 8
M  V30 8 1 5 9
M  V30 9 2 6 10
M  V30 10 1 6 11
M  V30 11 1 9 12
M  V30 12 1 9 13
M  V30 13 1 9 14
M  V30 14 1 10 15
M  V30 15 2 11 16
M  V30 16 1 11 17
M  V30 17 1 16 18
M  V30 18 1 17 19
M  V30 19 2 18 20
M  V30 20 1 18 21
M  V30 21 1 19 22
M  V30 22 1 20 23
M  V30 23 2 21 24
M  V30 24 2 22 25
M  V30 25 1 22 26
M  V30 26 1 25 27
M  V30 27 2 26 28
M  V30 28 2 27 29
M  V30 29 1 29 30
M  V30 30 2 30 31
M  V30 31 1 30 32
M  V30 32 1 7 8
M  V30 33 1 15 16
M  V30 34 1 23 24
M  V30 35 1 28 29
M  V30 END BOND
M  V30 END CTAB
M  END
>  <Molecule ChEMBL ID>
CHEMBL4522217

>  <Smiles>
O=C(O)c1ccc(NCc2c(-c3c(Cl)cccc3C(F)(F)F)noc2-c2cc[nH]c2)cc1

>  <IC50_nM>
81000

>  <Assay Description>
Inverse agonist activity at His6-tagged PPARgamma LBD (unknown origin) assessed as N-terminal biotinylated PGC1a coactivator peptide recruitment in presence of rosiglitazone by TR-FRET assay

$$$$
CHEMBL3753871
Actelion Java MolfileCreator 2.0

  0  0  0  0  0  0              0 V3000
M  V30 BEGIN CTAB
M  V30 COUNTS 38 41 0 0 0
M  V30 BEGIN ATOM
M  V30 1 O 7.7942 5.9999 0.0 0
M  V30 2 C 6.9282 5.4999 0.0 0
M  V30 3 N 6.0621 5.9999 0.0 0
M  V30 4 N 6.9282 4.4999 0.0 0
M  V30 5 C 5.1961 5.5 0.0 0
M  V30 6 C 6.0621 3.9999 0.0 0
M  V30 7 O 4.3301 6.0 0.0 0
M  V30 8 C 5.1961 4.5 0.0 0
M  V30 9 O 6.0621 3.0 0.0 0
M  V30 10 C 4.3301 3.9999 0.0 0
M  V30 11 C 4.3301 2.9999 0.0 0
M  V30 12 C 3.4641 2.5 0.0 0
M  V30 13 C 5.1961 2.4999 0.0 0
M  V30 14 C 3.4641 1.5 0.0 0
M  V30 15 C 5.1961 1.4999 0.0 0
M  V30 16 C 4.3301 0.9999 0.0 0
M  V30 17 N 4.3301 0.0 0.0 0
M  V30 18 C 5.1961 -0.5 0.0 0
M  V30 19 C 3.4641 -0.5 0.0 0
M  V30 20 C 6.0621 0.0 0.0 0
M  V30 21 C 2.598 0.0 0.0 0
M  V30 22 O 6.9282 -0.5 0.0 0
M  V30 23 O 1.732 -0.5 0.0 0
M  V30 24 C 7.7942 0.0 0.0 0
M  V30 25 C 0.866 0.0 0.0 0
M  V30 26 N 8.6602 -0.5 0.0 0
M  V30 27 C 7.7942 0.9999 0.0 0
M  V30 28 C 0.0 -0.5 0.0 0
M  V30 29 C 9.5262 0.0 0.0 0
M  V30 30 C 8.6602 1.4999 0.0 0
M  V30 31 C -0.866 0.0 0.0 0
M  V30 32 C 0.0 -1.4999 0.0 0
M  V30 33 C 9.5262 0.9999 0.0 0
M  V30 34 C -1.732 -0.4999 0.0 0
M  V30 35 C -0.866 -1.9999 0.0 0
M  V30 36 C -1.732 -1.4999 0.0 0
M  V30 37 O -2.598 -1.9999 0.0 0
M  V30 38 C -2.598 -2.9999 0.0 0
M  V30 END ATOM
M  V30 BEGIN BOND
M  V30 1 2 1 2
M  V30 2 1 2 3
M  V30 3 1 2 4
M  V30 4 1 3 5
M  V30 5 1 4 6
M  V30 6 2 5 7
M  V30 7 1 5 8
M  V30 8 2 6 9
M  V30 9 2 8 10
M  V30 10 1 10 11
M  V30 11 2 11 12
M  V30 12 1 11 13
M  V30 13 1 12 14
M  V30 14 2 13 15
M  V30 15 2 14 16
M  V30 16 1 16 17
M  V30 17 1 17 18
M  V30 18 1 17 19
M  V30 19 1 18 20
M  V30 20 1 19 21
M  V30 21 1 20 22
M  V30 22 1 21 23
M  V30 23 1 22 24
M  V30 24 1 23 25
M  V30 25 2 24 26
M  V30 26 1 24 27
M  V30 27 1 25 28
M  V30 28 1 26 29
M  V30 29 2 27 30
M  V30 30 2 28 31
M  V30 31 1 28 32
M  V30 32 2 29 33
M  V30 33 1 31 34
M  V30 34 2 32 35
M  V30 35 2 34 36
M  V30 36 1 36 37
M  V30 37 1 37 38
M  V30 38 1 6 8
M  V30 39 1 15 16
M  V30 40 1 30 33
M  V30 41 1 35 36
M  V30 END BOND
M  V30 END CTAB
M  END
>  <Molecule ChEMBL ID>
CHEMBL3753871

>  <Smiles>
COc1ccc(COCCN(CCOc2ccccn2)c2ccc(C=C3C(=O)NC(=O)NC3=O)cc2)cc1

>  <IC50_nM>
84000

>  <Assay Description>
Binding affinity to GST-tagged human PPAR-gamma receptor by FRET assay

$$$$
CHEMBL3828718
Actelion Java MolfileCreator 2.0

  0  0  0  0  0  0              0 V3000
M  V30 BEGIN CTAB
M  V30 COUNTS 32 34 0 0 0
M  V30 BEGIN ATOM
M  V30 1 Cl 8.0472 10.2749 0.0 0
M  V30 2 C 7.4595 9.4658 0.0 0
M  V30 3 C 6.4649 9.5704 0.0 0
M  V30 4 C 7.8662 8.5523 0.0 0
M  V30 5 C 5.8772 8.7614 0.0 0
M  V30 6 C 7.2784 7.7433 0.0 0
M  V30 7 C 6.2839 7.8478 0.0 0
M  V30 8 C 5.6961 7.0388 0.0 0
M  V30 9 O 4.6961 7.0388 0.0 0
M  V30 10 N 6.0051 6.0877 0.0 0
M  V30 11 C 4.3871 6.0877 0.0 0
M  V30 12 C 5.1961 5.5 0.0 0
M  V30 13 C 3.436 5.7787 0.0 0
M  V30 14 C 5.1961 4.5 0.0 0
M  V30 15 O 4.3301 4.0 0.0 0
M  V30 16 C 4.3301 3.0 0.0 0
M  V30 17 C 3.4641 2.5 0.0 0
M  V30 18 C 5.1961 2.5 0.0 0
M  V30 19 C 3.4641 1.5 0.0 0
M  V30 20 C 5.1961 1.5 0.0 0
M  V30 21 C 4.3301 1.0 0.0 0
M  V30 22 C 2.598 1.0 0.0 0
M  V30 23 F 4.3301 0.0 0.0 0
M  V30 24 N 1.732 1.4999 0.0 0
M  V30 25 C 1.732 2.4999 0.0 0
M  V30 26 C 0.866 0.9999 0.0 0
M  V30 27 O 0.866 2.9999 0.0 0
M  V30 28 O 2.598 3.0 0.0 0
M  V30 29 C 0.866 0.0 0.0 0
M  V30 30 C 2.598 4.0 0.0 0
M  V30 31 O 1.732 -0.5 0.0 0
M  V30 32 O 0.0 -0.5 0.0 0
M  V30 END ATOM
M  V30 BEGIN BOND
M  V30 1 1 1 2
M  V30 2 2 2 3
M  V30 3 1 2 4
M  V30 4 1 3 5
M  V30 5 2 4 6
M  V30 6 2 5 7
M  V30 7 1 7 8
M  V30 8 1 8 9
M  V30 9 2 8 10
M  V30 10 1 9 11
M  V30 11 1 10 12
M  V30 12 1 11 13
M  V30 13 1 12 14
M  V30 14 1 14 15
M  V30 15 1 15 16
M  V30 16 2 16 17
M  V30 17 1 16 18
M  V30 18 1 17 19
M  V30 19 2 18 20
M  V30 20 2 19 21
M  V30 21 1 19 22
M  V30 22 1 21 23
M  V30 23 1 22 24
M  V30 24 1 24 25
M  V30 25 1 24 26
M  V30 26 2 25 27
M  V30 27 1 25 28
M  V30 28 1 26 29
M  V30 29 1 28 30
M  V30 30 2 29 31
M  V30 31 1 29 32
M  V30 32 1 6 7
M  V30 33 2 11 12
M  V30 34 1 20 21
M  V30 END BOND
M  V30 END CTAB
M  END
>  <Molecule ChEMBL ID>
CHEMBL3828718

>  <Smiles>
COC(=O)N(CC(=O)O)Cc1cc(OCc2nc(-c3ccc(Cl)cc3)oc2C)ccc1F

>  <IC50_nM>
98400

>  <Assay Description>
Binding affinity to human GST-tagged PPAR-gamma LBD expressed in Escherichia coli BL21 after 30 mins in presence of fluorescein ligand FLA-A by fluorescence polarization assay

$$$$
CHEMBL4522217
Actelion Java MolfileCreator 2.0

  0  0  0  0  0  0              0 V3000
M  V30 BEGIN CTAB
M  V30 COUNTS 32 35 0 0 0
M  V30 BEGIN ATOM
M  V30 1 Cl 2.0253 -1.7449 0.0 0
M  V30 2 C 2.9763 -2.054 0.0 0
M  V30 3 C 3.7195 -1.3848 0.0 0
M  V30 4 C 3.1843 -3.0321 0.0 0
M  V30 5 C 4.6705 -1.6939 0.0 0
M  V30 6 C 3.5116 -0.4067 0.0 0
M  V30 7 C 4.1353 -3.3411 0.0 0
M  V30 8 C 4.8785 -2.672 0.0 0
M  V30 9 C 5.4137 -1.0247 0.0 0
M  V30 10 N 4.1807 0.3364 0.0 0
M  V30 11 C 2.598 0.0 0.0 0
M  V30 12 F 6.0828 -1.7679 0.0 0
M  V30 13 F 6.1568 -0.3556 0.0 0
M  V30 14 F 4.7446 -0.2816 0.0 0
M  V30 15 O 3.6807 1.2024 0.0 0
M  V30 16 C 2.7026 0.9945 0.0 0
M  V30 17 C 1.732 -0.5 0.0 0
M  V30 18 C 1.9594 1.6636 0.0 0
M  V30 19 N 0.866 0.0 0.0 0
M  V30 20 C 2.0639 2.6581 0.0 0
M  V30 21 C 0.9813 1.4557 0.0 0
M  V30 22 C 0.0 -0.5 0.0 0
M  V30 23 N 1.1504 3.0649 0.0 0
M  V30 24 C 0.4813 2.3217 0.0 0
M  V30 25 C -0.866 0.0 0.0 0
M  V30 26 C 0.0 -1.4999 0.0 0
M  V30 27 C -1.732 -0.4999 0.0 0
M  V30 28 C -0.866 -1.9999 0.0 0
M  V30 29 C -1.732 -1.4999 0.0 0
M  V30 30 C -2.598 -1.9999 0.0 0
M  V30 31 O -3.4641 -1.4999 0.0 0
M  V30 32 O -2.598 -2.9999 0.0 0
M  V30 END ATOM
M  V30 BEGIN BOND
M  V30 1 1 1 2
M  V30 2 2 2 3
M  V30 3 1 2 4
M  V30 4 1 3 5
M  V30 5 1 3 6
M  V30 6 2 4 7
M  V30 7 2 5 8
M  V30 8 1 5 9
M  V30 9 2 6 10
M  V30 10 1 6 11
M  V30 11 1 9 12
M  V30 12 1 9 13
M  V30 13 1 9 14
M  V30 14 1 10 15
M  V30 15 2 11 16
M  V30 16 1 11 17
M  V30 17 1 16 18
M  V30 18 1 17 19
M  V30 19 2 18 20
M  V30 20 1 18 21
M  V30 21 1 19 22
M  V30 22 1 20 23
M  V30 23 2 21 24
M  V30 24 2 22 25
M  V30 25 1 22 26
M  V30 26 1 25 27
M  V30 27 2 26 28
M  V30 28 2 27 29
M  V30 29 1 29 30
M  V30 30 2 30 31
M  V30 31 1 30 32
M  V30 32 1 7 8
M  V30 33 1 15 16
M  V30 34 1 23 24
M  V30 35 1 28 29
M  V30 END BOND
M  V30 END CTAB
M  END
>  <Molecule ChEMBL ID>
CHEMBL4522217

>  <Smiles>
O=C(O)c1ccc(NCc2c(-c3c(Cl)cccc3C(F)(F)F)noc2-c2cc[nH]c2)cc1

>  <IC50_nM>
99300

>  <Assay Description>
Inverse agonist activity at His6-tagged PPARgamma LBD (unknown origin) assessed as inhibition of rosiglitazone-induced N-terminal biotinylated co-activator SRC1 box2 peptide recruitment measured after 30 mins by TR-FRET assay

$$$$
CHEMBL516129
Actelion Java MolfileCreator 2.0

  0  0  0  0  0  0              0 V3000
M  V30 BEGIN CTAB
M  V30 COUNTS 32 35 0 0 0
M  V30 BEGIN ATOM
M  V30 1 O 6.9282 -4.5 0.0 0
M  V30 2 C 6.9282 -3.5 0.0 0
M  V30 3 O 7.7942 -3.0 0.0 0
M  V30 4 C 6.0621 -3.0 0.0 0 CFG=1
M  V30 5 N 5.1961 -3.5 0.0 0
M  V30 6 C 6.0621 -1.9999 0.0 0
M  V30 7 C 4.2826 -3.0932 0.0 0
M  V30 8 C 5.0916 -4.4945 0.0 0
M  V30 9 C 5.1961 -1.4999 0.0 0
M  V30 10 C 3.6134 -3.8364 0.0 0
M  V30 11 C 4.1134 -4.7024 0.0 0
M  V30 12 C 5.1961 -0.5 0.0 0
M  V30 13 C 4.3301 -1.9999 0.0 0
M  V30 14 C 4.3301 0.0 0.0 0
M  V30 15 C 3.4641 -1.5 0.0 0
M  V30 16 C 3.4641 -0.5 0.0 0
M  V30 17 C 2.598 0.0 0.0 0
M  V30 18 N 1.732 -0.5 0.0 0
M  V30 19 C 0.866 0.0 0.0 0
M  V30 20 C 1.732 -1.5 0.0 0
M  V30 21 C 0.0 -0.5 0.0 0
M  V30 22 N -0.9135 -0.0932 0.0 0
M  V30 23 C -0.1045 -1.4945 0.0 0
M  V30 24 C -1.5826 -0.8364 0.0 0
M  V30 25 O -1.0826 -1.7024 0.0 0
M  V30 26 C 0.6386 -2.1636 0.0 0
M  V30 27 C -2.5771 -0.7318 0.0 0
M  V30 28 C -2.9839 0.1816 0.0 0
M  V30 29 C -3.1649 -1.5408 0.0 0
M  V30 30 C -3.9784 0.2861 0.0 0
M  V30 31 C -4.1595 -1.4363 0.0 0
M  V30 32 C -4.5662 -0.5228 0.0 0
M  V30 END ATOM
M  V30 BEGIN BOND
M  V30 1 2 1 2
M  V30 2 1 2 3
M  V30 3 1 2 4
M  V30 4 1 4 5 CFG=1
M  V30 5 1 4 6
M  V30 6 1 5 7
M  V30 7 1 5 8
M  V30 8 1 6 9
M  V30 9 2 7 10
M  V30 10 2 8 11
M  V30 11 2 9 12
M  V30 12 1 9 13
M  V30 13 1 12 14
M  V30 14 2 13 15
M  V30 15 2 14 16
M  V30 16 1 16 17
M  V30 17 1 17 18
M  V30 18 1 18 19
M  V30 19 1 18 20
M  V30 20 1 19 21
M  V30 21 1 21 22
M  V30 22 2 21 23
M  V30 23 2 22 24
M  V30 24 1 23 25
M  V30 25 1 23 26
M  V30 26 1 24 27
M  V30 27 2 27 28
M  V30 28 1 27 29
M  V30 29 1 28 30
M  V30 30 2 29 31
M  V30 31 2 30 32
M  V30 32 1 10 11
M  V30 33 1 15 16
M  V30 34 1 24 25
M  V30 35 1 31 32
M  V30 END BOND
M  V30 BEGIN COLLECTION
M  V30 MDLV30/STEABS ATOMS=(1 4)
M  V30 END COLLECTION
M  V30 END CTAB
M  END
>  <Molecule ChEMBL ID>
CHEMBL516129

>  <Smiles>
Cc1oc(-c2ccccc2)nc1CN(C)Cc1ccc(C[C@@H](C(=O)O)n2cccc2)cc1

>  <IC50_nM>
100000

>  <Assay Description>
Displacement of [3H]darglitazone from human PPARgamma by scintillation proximity assay

$$$$
CHEMBL4746217
Actelion Java MolfileCreator 2.0

  0  0  0  0  0  0              0 V3000
M  V30 BEGIN CTAB
M  V30 COUNTS 27 29 0 0 0
M  V30 BEGIN ATOM
M  V30 1 F 2.4641 -1.4999 0.0 0
M  V30 2 C 3.4641 -1.4999 0.0 0
M  V30 3 F 3.4641 -2.4999 0.0 0
M  V30 4 F 4.4641 -1.4999 0.0 0
M  V30 5 C 3.4641 -0.4999 0.0 0
M  V30 6 C 2.598 0.0 0.0 0
M  V30 7 C 4.3301 0.0 0.0 0
M  V30 8 O 1.732 -0.5 0.0 0
M  V30 9 C 2.598 1.0 0.0 0
M  V30 10 C 4.3301 1.0 0.0 0
M  V30 11 C 0.866 0.0 0.0 0
M  V30 12 C 3.4641 1.5 0.0 0
M  V30 13 C 0.0 -0.5 0.0 0 CFG=2
M  V30 14 C -0.9135 -0.0932 0.0 0
M  V30 15 C -0.1045 -1.4945 0.0 0
M  V30 16 N -1.5826 -0.8364 0.0 0
M  V30 17 C -1.0826 -1.7024 0.0 0
M  V30 18 C -2.5771 -0.7318 0.0 0
M  V30 19 N -2.9839 0.1816 0.0 0
M  V30 20 N -3.1649 -1.5408 0.0 0
M  V30 21 C -3.9784 0.2861 0.0 0
M  V30 22 C -4.1595 -1.4363 0.0 0
M  V30 23 C -4.3851 1.1997 0.0 0
M  V30 24 C -4.5662 -0.5228 0.0 0
M  V30 25 C -4.7472 -2.2453 0.0 0
M  V30 26 O -3.7974 2.0087 0.0 0
M  V30 27 O -5.3797 1.3042 0.0 0
M  V30 END ATOM
M  V30 BEGIN BOND
M  V30 1 1 1 2
M  V30 2 1 2 3
M  V30 3 1 2 4
M  V30 4 1 2 5
M  V30 5 2 5 6
M  V30 6 1 5 7
M  V30 7 1 6 8
M  V30 8 1 6 9
M  V30 9 2 7 10
M  V30 10 1 8 11
M  V30 11 2 9 12
M  V30 12 1 13 11 CFG=1
M  V30 13 1 13 14
M  V30 14 1 13 15
M  V30 15 1 14 16
M  V30 16 1 15 17
M  V30 17 1 16 18
M  V30 18 2 18 19
M  V30 19 1 18 20
M  V30 20 1 19 21
M  V30 21 2 20 22
M  V30 22 1 21 23
M  V30 23 2 21 24
M  V30 24 1 22 25
M  V30 25 2 23 26
M  V30 26 1 23 27
M  V30 27 1 10 12
M  V30 28 1 16 17
M  V30 29 1 22 24
M  V30 END BOND
M  V30 BEGIN COLLECTION
M  V30 MDLV30/STERAC1 ATOMS=(1 13)
M  V30 END COLLECTION
M  V30 END CTAB
M  END
>  <Molecule ChEMBL ID>
CHEMBL4746217

>  <Smiles>
Cc1cc(C(=O)O)nc(N2CCC(COc3ccccc3C(F)(F)F)C2)n1

>  <IC50_nM>
100000

>  <Assay Description>
Agonist activity at PPARgamma (unknown origin)

$$$$
CHEMBL3264936
Actelion Java MolfileCreator 2.0

  0  0  0  0  0  0              0 V3000
M  V30 BEGIN CTAB
M  V30 COUNTS 52 57 0 0 0
M  V30 BEGIN ATOM
M  V30 1 S 12.9903 -6.75 0.0 0
M  V30 2 O 11.4904 -6.7499 0.0 0
M  V30 3 O 12.2404 -8.049 0.0 0
M  V30 4 N 12.9903 -5.25 0.0 0
M  V30 5 C 14.2894 -7.5 0.0 0
M  V30 6 C 11.6913 -4.5 0.0 0
M  V30 7 C 14.2894 -9.0 0.0 0
M  V30 8 C 15.5884 -6.75 0.0 0
M  V30 9 C 11.6913 -3.0 0.0 0
M  V30 10 C 10.3923 -5.25 0.0 0
M  V30 11 C 15.5884 -9.75 0.0 0
M  V30 12 C 16.8875 -7.5 0.0 0
M  V30 13 C 10.3923 -2.25 0.0 0
M  V30 14 C 9.0932 -4.5 0.0 0
M  V30 15 C 16.8875 -9.0 0.0 0
M  V30 16 C 9.0932 -3.0 0.0 0
M  V30 17 C 18.1865 -9.75 0.0 0
M  V30 18 C 7.7942 -2.25 0.0 0
M  V30 19 C 18.1865 -11.25 0.0 0
M  V30 20 C 19.4855 -9.0 0.0 0
M  V30 21 C 7.7942 -0.75 0.0 0
M  V30 22 C 6.4951 -3.0 0.0 0
M  V30 23 C 19.4855 -12.0 0.0 0
M  V30 24 C 20.7846 -9.75 0.0 0
M  V30 25 C 6.4951 0.0 0.0 0
M  V30 26 C 5.1961 -2.25 0.0 0
M  V30 27 C 20.7846 -11.25 0.0 0
M  V30 28 C 5.1961 -0.75 0.0 0
M  V30 29 O 22.0836 -12.0 0.0 0
M  V30 30 C 3.8971 0.0 0.0 0
M  V30 31 C 23.3827 -11.25 0.0 0
M  V30 32 C 2.598 -0.75 0.0 0
M  V30 33 C 1.299 0.0 0.0 0
M  V30 34 C 0.0 -0.75 0.0 0
M  V30 35 N -1.3703 -0.1398 0.0 0
M  V30 36 N -0.1567 -2.2417 0.0 0
M  V30 37 N -2.374 -1.2546 0.0 0
M  V30 38 C -1.624 -2.5536 0.0 0
M  V30 39 C 0.9579 -3.2454 0.0 0
M  V30 40 C -3.8657 -1.0978 0.0 0
M  V30 41 O -2.2341 -3.9239 0.0 0
M  V30 42 C 2.3845 -2.7819 0.0 0
M  V30 43 C -4.7474 -2.3113 0.0 0
M  V30 44 C -6.2392 -2.1545 0.0 0
M  V30 45 C -4.1373 -3.6816 0.0 0
M  V30 46 C -7.1209 -3.368 0.0 0
M  V30 47 C -5.019 -4.8951 0.0 0
M  V30 48 C -6.5108 -4.7383 0.0 0
M  V30 49 C -7.3925 -5.9519 0.0 0
M  V30 50 C -6.1789 -6.8336 0.0 0
M  V30 51 C -8.2741 -7.1654 0.0 0
M  V30 52 C -8.606 -5.0702 0.0 0
M  V30 END ATOM
M  V30 BEGIN BOND
M  V30 1 2 1 2
M  V30 2 2 1 3
M  V30 3 1 1 4
M  V30 4 1 1 5
M  V30 5 1 4 6
M  V30 6 2 5 7
M  V30 7 1 5 8
M  V30 8 2 6 9
M  V30 9 1 6 10
M  V30 10 1 7 11
M  V30 11 2 8 12
M  V30 12 1 9 13
M  V30 13 2 10 14
M  V30 14 2 11 15
M  V30 15 2 13 16
M  V30 16 1 15 17
M  V30 17 1 16 18
M  V30 18 2 17 19
M  V30 19 1 17 20
M  V30 20 2 18 21
M  V30 21 1 18 22
M  V30 22 1 19 23
M  V30 23 2 20 24
M  V30 24 1 21 25
M  V30 25 2 22 26
M  V30 26 2 23 27
M  V30 27 2 25 28
M  V30 28 1 27 29
M  V30 29 1 28 30
M  V30 30 1 29 31
M  V30 31 1 30 32
M  V30 32 1 32 33
M  V30 33 1 33 34
M  V30 34 2 34 35
M  V30 35 1 34 36
M  V30 36 1 35 37
M  V30 37 1 36 38
M  V30 38 1 36 39
M  V30 39 1 37 40
M  V30 40 2 38 41
M  V30 41 1 39 42
M  V30 42 1 40 43
M  V30 43 2 43 44
M  V30 44 1 43 45
M  V30 45 1 44 46
M  V30 46 2 45 47
M  V30 47 2 46 48
M  V30 48 1 48 49
M  V30 49 1 49 50
M  V30 50 1 49 51
M  V30 51 1 49 52
M  V30 52 1 12 15
M  V30 53 1 14 16
M  V30 54 1 24 27
M  V30 55 1 26 28
M  V30 56 1 37 38
M  V30 57 1 47 48
M  V30 END BOND
M  V30 END CTAB
M  END
>  <Molecule ChEMBL ID>
CHEMBL3264936

>  <Smiles>
CCn1c(CCCc2ccc(-c3ccc(NS(=O)(=O)c4ccc(-c5ccc(OC)cc5)cc4)cc3)cc2)nn(Cc2ccc(C(C)(C)C)cc2)c1=O

>  <IC50_nM>
100000

>  <Assay Description>
Inhibition of human PPAR-gamma

$$$$
CHEMBL5197924
Actelion Java MolfileCreator 2.0

  0  0  0  0  0  0              0 V3000
M  V30 BEGIN CTAB
M  V30 COUNTS 33 36 0 0 0
M  V30 BEGIN ATOM
M  V30 1 Cl 3.0399 -2.6191 0.0 0
M  V30 2 C 4.4674 -3.083 0.0 0
M  V30 3 C 5.5828 -2.0786 0.0 0
M  V30 4 C 4.7795 -4.5511 0.0 0
M  V30 5 C 7.0103 -2.5424 0.0 0
M  V30 6 C 5.2708 -0.6104 0.0 0
M  V30 7 C 6.207 -5.0149 0.0 0
M  V30 8 C 7.3224 -4.0106 0.0 0
M  V30 9 C 8.1258 -1.5381 0.0 0
M  V30 10 N 6.2751 0.5049 0.0 0
M  V30 11 C 3.8996 0.0 0.0 0
M  V30 12 F 9.1301 -2.6535 0.0 0
M  V30 13 F 9.2412 -0.5338 0.0 0
M  V30 14 F 7.1214 -0.4227 0.0 0
M  V30 15 O 5.5246 1.8048 0.0 0
M  V30 16 C 4.0565 1.4927 0.0 0
M  V30 17 C 2.5997 -0.7504 0.0 0
M  V30 18 C 2.941 2.497 0.0 0
M  V30 19 N 1.2998 0.0 0.0 0
M  V30 20 C 3.0979 3.9898 0.0 0
M  V30 21 C 1.4756 2.1958 0.0 0
M  V30 22 C 0.0 -0.7504 0.0 0
M  V30 23 C 1.2943 1.4792 0.0 0
M  V30 24 N 1.7267 4.6003 0.0 0
M  V30 25 C 0.7224 3.4848 0.0 0
M  V30 26 C 0.0 -2.2514 0.0 0
M  V30 27 C -1.2998 0.0 0.0 0
M  V30 28 C -1.2998 -3.0019 0.0 0
M  V30 29 C -2.5997 -0.7504 0.0 0
M  V30 30 C -2.5997 -2.2514 0.0 0
M  V30 31 C -3.8996 -3.0019 0.0 0
M  V30 32 O -3.8996 -4.5028 0.0 0
M  V30 33 O -5.1994 -2.2514 0.0 0
M  V30 END ATOM
M  V30 BEGIN BOND
M  V30 1 1 1 2
M  V30 2 2 2 3
M  V30 3 1 2 4
M  V30 4 1 3 5
M  V30 5 1 3 6
M  V30 6 2 4 7
M  V30 7 2 5 8
M  V30 8 1 5 9
M  V30 9 2 6 10
M  V30 10 1 6 11
M  V30 11 1 9 12
M  V30 12 1 9 13
M  V30 13 1 9 14
M  V30 14 1 10 15
M  V30 15 2 11 16
M  V30 16 1 11 17
M  V30 17 1 16 18
M  V30 18 1 17 19
M  V30 19 2 18 20
M  V30 20 1 18 21
M  V30 21 1 19 22
M  V30 22 1 19 23
M  V30 23 1 20 24
M  V30 24 2 21 25
M  V30 25 2 22 26
M  V30 26 1 22 27
M  V30 27 1 26 28
M  V30 28 2 27 29
M  V30 29 2 28 30
M  V30 30 1 30 31
M  V30 31 2 31 32
M  V30 32 1 31 33
M  V30 33 1 7 8
M  V30 34 1 15 16
M  V30 35 1 24 25
M  V30 36 1 29 30
M  V30 END BOND
M  V30 END CTAB
M  END
>  <Molecule ChEMBL ID>
CHEMBL5197924

>  <Smiles>
CN(Cc1c(-c2c(Cl)cccc2C(F)(F)F)noc1-c1cc[nH]c1)c1ccc(C(=O)O)cc1

>  <IC50_nM>
100000

>  <Assay Description>
Inverse agonist activity at His6-tagged PPARgamma LBD (unknown origin) assessed as N-terminal biotinylated PGC1a coactivator peptide recruitment in presence of rosiglitazone by TR-FRET assay

$$$$
CHEMBL2323021
Actelion Java MolfileCreator 2.0

  0  0  0  0  0  0              0 V3000
M  V30 BEGIN CTAB
M  V30 COUNTS 35 37 0 0 0
M  V30 BEGIN ATOM
M  V30 1 S 4.0874 2.1159 0.0 0
M  V30 2 O 3.9829 3.1104 0.0 0
M  V30 3 O 3.1739 2.5226 0.0 0
M  V30 4 N 5.082 2.2205 0.0 0
M  V30 5 C 3.6807 1.2024 0.0 0
M  V30 6 C 5.6697 1.4114 0.0 0 CFG=1
M  V30 7 C 5.4887 3.134 0.0 0
M  V30 8 S 2.7026 0.9945 0.0 0
M  V30 9 C 4.1807 0.3364 0.0 0
M  V30 10 C 6.6643 1.516 0.0 0
M  V30 11 C 5.263 0.4979 0.0 0
M  V30 12 C 6.4832 3.2385 0.0 0
M  V30 13 C 2.598 -0.0047 0.0 0
M  V30 14 C 3.5116 -0.4067 0.0 0
M  V30 15 N 7.071 2.4295 0.0 0
M  V30 16 C 1.732 -0.5 0.0 0 CFG=1
M  V30 17 C 8.0655 2.534 0.0 0
M  V30 18 O 0.866 0.0 0.0 0
M  V30 19 C 1.732 -1.5 0.0 0
M  V30 20 C 1.732 0.4999 0.0 0
M  V30 21 C 8.4723 3.4476 0.0 0
M  V30 22 C 8.6533 1.725 0.0 0
M  V30 23 O 2.598 -2.0 0.0 0
M  V30 24 N 0.866 -2.0 0.0 0
M  V30 25 F 2.8363 0.4879 0.0 0
M  V30 26 F 1.732 1.4999 0.0 0
M  V30 27 F 0.732 0.4999 0.0 0
M  V30 28 C 9.4668 3.5521 0.0 0
M  V30 29 C 7.8845 4.2566 0.0 0
M  V30 30 C 9.6478 1.8296 0.0 0
M  V30 31 C 10.0546 2.7431 0.0 0
M  V30 32 F 8.6935 4.8444 0.0 0
M  V30 33 F 7.2967 5.0656 0.0 0
M  V30 34 F 7.0755 3.6688 0.0 0
M  V30 35 F 11.0491 2.8476 0.0 0
M  V30 END ATOM
M  V30 BEGIN BOND
M  V30 1 2 1 2
M  V30 2 2 1 3
M  V30 3 1 1 4
M  V30 4 1 1 5
M  V30 5 1 4 6
M  V30 6 1 4 7
M  V30 7 1 5 8
M  V30 8 2 5 9
M  V30 9 1 6 10
M  V30 10 1 6 11 CFG=1
M  V30 11 1 7 12
M  V30 12 1 8 13
M  V30 13 1 9 14
M  V30 14 1 10 15
M  V30 15 1 13 16
M  V30 16 1 15 17
M  V30 17 1 16 18
M  V30 18 1 16 19
M  V30 19 1 16 20 CFG=1
M  V30 20 2 17 21
M  V30 21 1 17 22
M  V30 22 2 19 23
M  V30 23 1 19 24
M  V30 24 1 20 25
M  V30 25 1 20 26
M  V30 26 1 20 27
M  V30 27 1 21 28
M  V30 28 1 21 29
M  V30 29 2 22 30
M  V30 30 2 28 31
M  V30 31 1 29 32
M  V30 32 1 29 33
M  V30 33 1 29 34
M  V30 34 1 31 35
M  V30 35 1 12 15
M  V30 36 2 13 14
M  V30 37 1 30 31
M  V30 END BOND
M  V30 BEGIN COLLECTION
M  V30 MDLV30/STEABS ATOMS=(2 6 16)
M  V30 END COLLECTION
M  V30 END CTAB
M  END
>  <Molecule ChEMBL ID>
CHEMBL2323021

>  <Smiles>
C[C@@H]1CN(c2ccc(F)cc2C(F)(F)F)CCN1S(=O)(=O)c1ccc([C@@](O)(C(N)=O)C(F)(F)F)s1

>  <IC50_nM>
100000

>  <Assay Description>
Inhibition of PPARgamma (unknown origin)

$$$$
CHEMBL4438380
Actelion Java MolfileCreator 2.0

  0  0  0  0  0  0              0 V3000
M  V30 BEGIN CTAB
M  V30 COUNTS 32 35 0 0 0
M  V30 BEGIN ATOM
M  V30 1 Cl 2.0253 -1.7449 0.0 0
M  V30 2 C 2.9763 -2.054 0.0 0
M  V30 3 C 3.7195 -1.3848 0.0 0
M  V30 4 C 3.1843 -3.0321 0.0 0
M  V30 5 C 4.6705 -1.6939 0.0 0
M  V30 6 C 3.5116 -0.4067 0.0 0
M  V30 7 C 4.1353 -3.3411 0.0 0
M  V30 8 C 4.8785 -2.672 0.0 0
M  V30 9 C 5.4137 -1.0247 0.0 0
M  V30 10 N 4.1807 0.3364 0.0 0
M  V30 11 C 2.598 0.0 0.0 0
M  V30 12 F 6.0828 -1.7679 0.0 0
M  V30 13 F 6.1568 -0.3556 0.0 0
M  V30 14 F 4.7446 -0.2816 0.0 0
M  V30 15 O 3.6807 1.2024 0.0 0
M  V30 16 C 2.7026 0.9945 0.0 0
M  V30 17 C 1.732 -0.5 0.0 0
M  V30 18 C 1.9594 1.6636 0.0 0
M  V30 19 N 0.866 0.0 0.0 0
M  V30 20 S 2.0639 2.6581 0.0 0
M  V30 21 C 0.9813 1.4557 0.0 0
M  V30 22 C 0.0 -0.5 0.0 0
M  V30 23 C 1.1504 3.0649 0.0 0
M  V30 24 C 0.4813 2.3217 0.0 0
M  V30 25 C -0.866 0.0 0.0 0
M  V30 26 C 0.0 -1.4999 0.0 0
M  V30 27 C -1.732 -0.4999 0.0 0
M  V30 28 C -0.866 -1.9999 0.0 0
M  V30 29 C -1.732 -1.4999 0.0 0
M  V30 30 C -2.598 -1.9999 0.0 0
M  V30 31 O -3.4641 -1.4999 0.0 0
M  V30 32 O -2.598 -2.9999 0.0 0
M  V30 END ATOM
M  V30 BEGIN BOND
M  V30 1 1 1 2
M  V30 2 2 2 3
M  V30 3 1 2 4
M  V30 4 1 3 5
M  V30 5 1 3 6
M  V30 6 2 4 7
M  V30 7 2 5 8
M  V30 8 1 5 9
M  V30 9 2 6 10
M  V30 10 1 6 11
M  V30 11 1 9 12
M  V30 12 1 9 13
M  V30 13 1 9 14
M  V30 14 1 10 15
M  V30 15 2 11 16
M  V30 16 1 11 17
M  V30 17 1 16 18
M  V30 18 1 17 19
M  V30 19 1 18 20
M  V30 20 2 18 21
M  V30 21 1 19 22
M  V30 22 1 20 23
M  V30 23 1 21 24
M  V30 24 2 22 25
M  V30 25 1 22 26
M  V30 26 1 25 27
M  V30 27 2 26 28
M  V30 28 2 27 29
M  V30 29 1 29 30
M  V30 30 2 30 31
M  V30 31 1 30 32
M  V30 32 1 7 8
M  V30 33 1 15 16
M  V30 34 2 23 24
M  V30 35 1 28 29
M  V30 END BOND
M  V30 END CTAB
M  END
>  <Molecule ChEMBL ID>
CHEMBL4438380

>  <Smiles>
O=C(O)c1ccc(NCc2c(-c3c(Cl)cccc3C(F)(F)F)noc2-c2cccs2)cc1

>  <IC50_nM>
100000

>  <Assay Description>
Inverse agonist activity at His6-tagged PPARgamma LBD (unknown origin) assessed as inhibition of rosiglitazone-induced N-terminal biotinylated co-activator SRC1 box2 peptide recruitment measured after 30 mins by TR-FRET assay

$$$$
CHEMBL4465726
Actelion Java MolfileCreator 2.0

  0  0  0  0  0  0              0 V3000
M  V30 BEGIN CTAB
M  V30 COUNTS 34 37 0 0 0
M  V30 BEGIN ATOM
M  V30 1 Cl 2.0253 -1.7449 0.0 0
M  V30 2 C 2.9763 -2.054 0.0 0
M  V30 3 C 3.7195 -1.3848 0.0 0
M  V30 4 C 3.1843 -3.0321 0.0 0
M  V30 5 C 4.6705 -1.6939 0.0 0
M  V30 6 C 3.5116 -0.4067 0.0 0
M  V30 7 C 4.1353 -3.3411 0.0 0
M  V30 8 C 4.8785 -2.672 0.0 0
M  V30 9 C 5.4137 -1.0247 0.0 0
M  V30 10 N 4.1807 0.3364 0.0 0
M  V30 11 C 2.598 0.0 0.0 0
M  V30 12 F 6.0828 -1.7679 0.0 0
M  V30 13 F 6.1568 -0.3556 0.0 0
M  V30 14 F 4.7446 -0.2816 0.0 0
M  V30 15 O 3.6807 1.2024 0.0 0
M  V30 16 C 2.7026 0.9945 0.0 0
M  V30 17 C 1.732 -0.5 0.0 0
M  V30 18 C 1.9594 1.6636 0.0 0
M  V30 19 N 0.866 0.0 0.0 0
M  V30 20 C 2.1673 2.6418 0.0 0
M  V30 21 C 1.0084 1.3546 0.0 0
M  V30 22 C 0.0 -0.5 0.0 0
M  V30 23 C 1.4242 3.3109 0.0 0
M  V30 24 C 0.2652 2.0237 0.0 0
M  V30 25 C -0.866 0.0 0.0 0
M  V30 26 C 0.0 -1.4999 0.0 0
M  V30 27 O 1.6321 4.289 0.0 0
M  V30 28 C 0.4731 3.0019 0.0 0
M  V30 29 C -1.732 -0.4999 0.0 0
M  V30 30 C -0.866 -1.9999 0.0 0
M  V30 31 C -1.732 -1.4999 0.0 0
M  V30 32 C -2.598 -1.9999 0.0 0
M  V30 33 O -3.4641 -1.4999 0.0 0
M  V30 34 O -2.598 -2.9999 0.0 0
M  V30 END ATOM
M  V30 BEGIN BOND
M  V30 1 1 1 2
M  V30 2 2 2 3
M  V30 3 1 2 4
M  V30 4 1 3 5
M  V30 5 1 3 6
M  V30 6 2 4 7
M  V30 7 2 5 8
M  V30 8 1 5 9
M  V30 9 2 6 10
M  V30 10 1 6 11
M  V30 11 1 9 12
M  V30 12 1 9 13
M  V30 13 1 9 14
M  V30 14 1 10 15
M  V30 15 2 11 16
M  V30 16 1 11 17
M  V30 17 1 16 18
M  V30 18 1 17 19
M  V30 19 2 18 20
M  V30 20 1 18 21
M  V30 21 1 19 22
M  V30 22 1 20 23
M  V30 23 2 21 24
M  V30 24 2 22 25
M  V30 25 1 22 26
M  V30 26 1 23 27
M  V30 27 2 23 28
M  V30 28 1 25 29
M  V30 29 2 26 30
M  V30 30 2 29 31
M  V30 31 1 31 32
M  V30 32 2 32 33
M  V30 33 1 32 34
M  V30 34 1 7 8
M  V30 35 1 15 16
M  V30 36 1 24 28
M  V30 37 1 30 31
M  V30 END BOND
M  V30 END CTAB
M  END
>  <Molecule ChEMBL ID>
CHEMBL4465726

>  <Smiles>
O=C(O)c1ccc(NCc2c(-c3c(Cl)cccc3C(F)(F)F)noc2-c2cccc(O)c2)cc1

>  <IC50_nM>
100000

>  <Assay Description>
Inverse agonist activity at His6-tagged PPARgamma LBD (unknown origin) assessed as inhibition of rosiglitazone-induced N-terminal biotinylated co-activator SRC1 box2 peptide recruitment measured after 30 mins by TR-FRET assay

$$$$
CHEMBL4514441
Actelion Java MolfileCreator 2.0

  0  0  0  0  0  0              0 V3000
M  V30 BEGIN CTAB
M  V30 COUNTS 37 41 0 0 0
M  V30 BEGIN ATOM
M  V30 1 Cl 2.0253 -1.7449 0.0 0
M  V30 2 C 2.9763 -2.054 0.0 0
M  V30 3 C 3.7195 -1.3848 0.0 0
M  V30 4 C 3.1843 -3.0321 0.0 0
M  V30 5 C 4.6705 -1.6939 0.0 0
M  V30 6 C 3.5116 -0.4067 0.0 0
M  V30 7 C 4.1353 -3.3411 0.0 0
M  V30 8 C 4.8785 -2.672 0.0 0
M  V30 9 C 5.4137 -1.0247 0.0 0
M  V30 10 N 4.1807 0.3364 0.0 0
M  V30 11 C 2.598 0.0 0.0 0
M  V30 12 F 6.0828 -1.7679 0.0 0
M  V30 13 F 6.1568 -0.3556 0.0 0
M  V30 14 F 4.7446 -0.2816 0.0 0
M  V30 15 O 3.6807 1.2024 0.0 0
M  V30 16 C 2.7026 0.9945 0.0 0
M  V30 17 C 1.732 -0.5 0.0 0
M  V30 18 C 1.9594 1.6636 0.0 0
M  V30 19 N 0.866 0.0 0.0 0
M  V30 20 C 2.1673 2.6418 0.0 0
M  V30 21 C 1.0084 1.3546 0.0 0
M  V30 22 C 0.0 -0.5 0.0 0
M  V30 23 C 1.4242 3.3109 0.0 0
M  V30 24 C 3.1184 2.9508 0.0 0
M  V30 25 C 0.2652 2.0237 0.0 0
M  V30 26 C -0.866 0.0 0.0 0
M  V30 27 C 0.0 -1.4999 0.0 0
M  V30 28 C 0.4731 3.0019 0.0 0
M  V30 29 C 1.6321 4.289 0.0 0
M  V30 30 C 3.3263 3.9289 0.0 0
M  V30 31 C -1.732 -0.4999 0.0 0
M  V30 32 C -0.866 -1.9999 0.0 0
M  V30 33 C 2.5831 4.598 0.0 0
M  V30 34 C -1.732 -1.4999 0.0 0
M  V30 35 C -2.598 -1.9999 0.0 0
M  V30 36 O -3.4641 -1.4999 0.0 0
M  V30 37 O -2.598 -2.9999 0.0 0
M  V30 END ATOM
M  V30 BEGIN BOND
M  V30 1 1 1 2
M  V30 2 2 2 3
M  V30 3 1 2 4
M  V30 4 1 3 5
M  V30 5 1 3 6
M  V30 6 2 4 7
M  V30 7 2 5 8
M  V30 8 1 5 9
M  V30 9 2 6 10
M  V30 10 1 6 11
M  V30 11 1 9 12
M  V30 12 1 9 13
M  V30 13 1 9 14
M  V30 14 1 10 15
M  V30 15 2 11 16
M  V30 16 1 11 17
M  V30 17 1 16 18
M  V30 18 1 17 19
M  V30 19 1 18 20
M  V30 20 2 18 21
M  V30 21 1 19 22
M  V30 22 1 20 23
M  V30 23 2 20 24
M  V30 24 1 21 25
M  V30 25 2 22 26
M  V30 26 1 22 27
M  V30 27 1 23 28
M  V30 28 2 23 29
M  V30 29 1 24 30
M  V30 30 1 26 31
M  V30 31 2 27 32
M  V30 32 1 29 33
M  V30 33 2 31 34
M  V30 34 1 34 35
M  V30 35 2 35 36
M  V30 36 1 35 37
M  V30 37 1 7 8
M  V30 38 1 15 16
M  V30 39 2 25 28
M  V30 40 2 30 33
M  V30 41 1 32 34
M  V30 END BOND
M  V30 END CTAB
M  END
>  <Molecule ChEMBL ID>
CHEMBL4514441

>  <Smiles>
O=C(O)c1ccc(NCc2c(-c3c(Cl)cccc3C(F)(F)F)noc2-c2cccc3ccccc23)cc1

>  <IC50_nM>
100000

>  <Assay Description>
Inverse agonist activity at His6-tagged PPARgamma LBD (unknown origin) assessed as inhibition of rosiglitazone-induced N-terminal biotinylated co-activator SRC1 box2 peptide recruitment measured after 30 mins by TR-FRET assay

$$$$
CHEMBL478563
Actelion Java MolfileCreator 2.0

  0  0  0  0  0  0              0 V3000
M  V30 BEGIN CTAB
M  V30 COUNTS 34 37 0 0 0
M  V30 BEGIN ATOM
M  V30 1 O 6.9282 -4.5 0.0 0
M  V30 2 C 6.9282 -3.5 0.0 0
M  V30 3 O 7.7942 -3.0 0.0 0
M  V30 4 C 6.0621 -3.0 0.0 0 CFG=1
M  V30 5 N 5.1961 -3.5 0.0 0
M  V30 6 C 6.0621 -1.9999 0.0 0
M  V30 7 C 4.2826 -3.0932 0.0 0
M  V30 8 C 5.0916 -4.4945 0.0 0
M  V30 9 C 5.1961 -1.4999 0.0 0
M  V30 10 C 3.6134 -3.8364 0.0 0
M  V30 11 C 4.1134 -4.7024 0.0 0
M  V30 12 C 5.1961 -0.5 0.0 0
M  V30 13 C 4.3301 -1.9999 0.0 0
M  V30 14 C 4.3301 0.0 0.0 0
M  V30 15 C 3.4641 -1.5 0.0 0
M  V30 16 C 3.4641 -0.5 0.0 0
M  V30 17 C 2.598 0.0 0.0 0
M  V30 18 N 1.732 -0.5 0.0 0
M  V30 19 C 1.732 -1.5 0.0 0
M  V30 20 C 0.866 0.0 0.0 0
M  V30 21 O 0.866 -2.0 0.0 0
M  V30 22 C 2.598 -1.9999 0.0 0
M  V30 23 C 0.0 -0.5 0.0 0
M  V30 24 N -0.1045 -1.4945 0.0 0
M  V30 25 C -0.9135 -0.0932 0.0 0
M  V30 26 C -1.0826 -1.7024 0.0 0
M  V30 27 O -1.5826 -0.8364 0.0 0
M  V30 28 C -1.1214 0.8848 0.0 0
M  V30 29 C -1.4894 -2.6159 0.0 0
M  V30 30 C -0.9016 -3.4249 0.0 0
M  V30 31 C -2.4839 -2.7205 0.0 0
M  V30 32 C -1.3083 -4.3385 0.0 0
M  V30 33 C -2.8906 -3.634 0.0 0
M  V30 34 C -2.3028 -4.443 0.0 0
M  V30 END ATOM
M  V30 BEGIN BOND
M  V30 1 2 1 2
M  V30 2 1 2 3
M  V30 3 1 2 4
M  V30 4 1 4 5 CFG=1
M  V30 5 1 4 6
M  V30 6 1 5 7
M  V30 7 1 5 8
M  V30 8 1 6 9
M  V30 9 2 7 10
M  V30 10 2 8 11
M  V30 11 2 9 12
M  V30 12 1 9 13
M  V30 13 1 12 14
M  V30 14 2 13 15
M  V30 15 2 14 16
M  V30 16 1 16 17
M  V30 17 1 17 18
M  V30 18 1 18 19
M  V30 19 1 18 20
M  V30 20 2 19 21
M  V30 21 1 19 22
M  V30 22 1 20 23
M  V30 23 1 23 24
M  V30 24 2 23 25
M  V30 25 2 24 26
M  V30 26 1 25 27
M  V30 27 1 25 28
M  V30 28 1 26 29
M  V30 29 2 29 30
M  V30 30 1 29 31
M  V30 31 1 30 32
M  V30 32 2 31 33
M  V30 33 2 32 34
M  V30 34 1 10 11
M  V30 35 1 15 16
M  V30 36 1 26 27
M  V30 37 1 33 34
M  V30 END BOND
M  V30 BEGIN COLLECTION
M  V30 MDLV30/STEABS ATOMS=(1 4)
M  V30 END COLLECTION
M  V30 END CTAB
M  END
>  <Molecule ChEMBL ID>
CHEMBL478563

>  <Smiles>
CC(=O)N(Cc1ccc(C[C@@H](C(=O)O)n2cccc2)cc1)Cc1nc(-c2ccccc2)oc1C

>  <IC50_nM>
100000

>  <Assay Description>
Displacement of [3H]darglitazone from human PPARgamma by scintillation proximity assay

$$$$
CHEMBL5177120
Actelion Java MolfileCreator 2.0

  0  0  0  0  0  0              0 V3000
M  V30 BEGIN CTAB
M  V30 COUNTS 32 35 0 0 0
M  V30 BEGIN ATOM
M  V30 1 Cl 2.0253 -1.7449 0.0 0
M  V30 2 C 2.9763 -2.054 0.0 0
M  V30 3 C 3.7195 -1.3848 0.0 0
M  V30 4 C 3.1843 -3.0321 0.0 0
M  V30 5 C 4.6705 -1.6939 0.0 0
M  V30 6 C 3.5116 -0.4067 0.0 0
M  V30 7 C 4.1353 -3.3411 0.0 0
M  V30 8 C 4.8785 -2.672 0.0 0
M  V30 9 C 5.4137 -1.0247 0.0 0
M  V30 10 N 4.1807 0.3364 0.0 0
M  V30 11 C 2.598 0.0 0.0 0
M  V30 12 F 6.0828 -1.7679 0.0 0
M  V30 13 F 6.1568 -0.3556 0.0 0
M  V30 14 F 4.7446 -0.2816 0.0 0
M  V30 15 O 3.6807 1.2024 0.0 0
M  V30 16 C 2.7026 0.9945 0.0 0
M  V30 17 C 1.732 -0.5 0.0 0
M  V30 18 C 2.0357 1.6839 0.0 0
M  V30 19 C 0.866 0.0 0.0 0
M  V30 20 C 2.1237 2.6866 0.0 0
M  V30 21 C 0.9729 1.4909 0.0 0
M  V30 22 C 0.866 0.9999 0.0 0
M  V30 23 N 1.2432 3.1238 0.0 0
M  V30 24 C 0.4991 2.299 0.0 0
M  V30 25 C 0.0 1.4999 0.0 0
M  V30 26 C 1.6834 1.3951 0.0 0
M  V30 27 C 0.0 2.4999 0.0 0
M  V30 28 C 1.6791 2.4701 0.0 0
M  V30 29 C 0.7853 3.0426 0.0 0
M  V30 30 C 0.866 3.9999 0.0 0
M  V30 31 O 0.0 4.4999 0.0 0
M  V30 32 O 1.732 4.4999 0.0 0
M  V30 END ATOM
M  V30 BEGIN BOND
M  V30 1 1 1 2
M  V30 2 2 2 3
M  V30 3 1 2 4
M  V30 4 1 3 5
M  V30 5 1 3 6
M  V30 6 2 4 7
M  V30 7 2 5 8
M  V30 8 1 5 9
M  V30 9 2 6 10
M  V30 10 1 6 11
M  V30 11 1 9 12
M  V30 12 1 9 13
M  V30 13 1 9 14
M  V30 14 1 10 15
M  V30 15 2 11 16
M  V30 16 1 11 17
M  V30 17 1 16 18
M  V30 18 2 17 19
M  V30 19 2 18 20
M  V30 20 1 18 21
M  V30 21 1 19 22
M  V30 22 1 20 23
M  V30 23 2 21 24
M  V30 24 2 22 25
M  V30 25 1 22 26
M  V30 26 1 25 27
M  V30 27 2 26 28
M  V30 28 2 27 29
M  V30 29 1 29 30
M  V30 30 2 30 31
M  V30 31 1 30 32
M  V30 32 1 7 8
M  V30 33 1 15 16
M  V30 34 1 23 24
M  V30 35 1 28 29
M  V30 END BOND
M  V30 END CTAB
M  END
>  <Molecule ChEMBL ID>
CHEMBL5177120

>  <Smiles>
O=C(O)c1ccc(/C=C\c2c(-c3c(Cl)cccc3C(F)(F)F)noc2-c2cc[nH]c2)cc1

>  <IC50_nM>
100000

>  <Assay Description>
Inverse agonist activity at His6-tagged PPARgamma LBD (unknown origin) assessed as N-terminal biotinylated PGC1a coactivator peptide recruitment in presence of rosiglitazone by TR-FRET assay

$$$$
CHEMBL4469931
Actelion Java MolfileCreator 2.0

  0  0  0  0  0  0              0 V3000
M  V30 BEGIN CTAB
M  V30 COUNTS 32 35 0 0 0
M  V30 BEGIN ATOM
M  V30 1 Cl 2.0253 -1.7449 0.0 0
M  V30 2 C 2.9763 -2.054 0.0 0
M  V30 3 C 3.7195 -1.3848 0.0 0
M  V30 4 C 3.1843 -3.0321 0.0 0
M  V30 5 C 4.6705 -1.6939 0.0 0
M  V30 6 C 3.5116 -0.4067 0.0 0
M  V30 7 C 4.1353 -3.3411 0.0 0
M  V30 8 C 4.8785 -2.672 0.0 0
M  V30 9 C 5.4137 -1.0247 0.0 0
M  V30 10 N 4.1807 0.3364 0.0 0
M  V30 11 C 2.598 0.0 0.0 0
M  V30 12 F 6.0828 -1.7679 0.0 0
M  V30 13 F 6.1568 -0.3556 0.0 0
M  V30 14 F 4.7446 -0.2816 0.0 0
M  V30 15 O 3.6807 1.2024 0.0 0
M  V30 16 C 2.7026 0.9945 0.0 0
M  V30 17 C 1.732 -0.5 0.0 0
M  V30 18 C 1.9594 1.6636 0.0 0
M  V30 19 N 0.866 0.0 0.0 0
M  V30 20 O 2.0639 2.6581 0.0 0
M  V30 21 C 0.9813 1.4557 0.0 0
M  V30 22 C 0.0 -0.5 0.0 0
M  V30 23 C 1.1504 3.0649 0.0 0
M  V30 24 C 0.4813 2.3217 0.0 0
M  V30 25 C -0.866 0.0 0.0 0
M  V30 26 C 0.0 -1.4999 0.0 0
M  V30 27 C -1.732 -0.4999 0.0 0
M  V30 28 C -0.866 -1.9999 0.0 0
M  V30 29 C -1.732 -1.4999 0.0 0
M  V30 30 C -2.598 -1.9999 0.0 0
M  V30 31 O -3.4641 -1.4999 0.0 0
M  V30 32 O -2.598 -2.9999 0.0 0
M  V30 END ATOM
M  V30 BEGIN BOND
M  V30 1 1 1 2
M  V30 2 2 2 3
M  V30 3 1 2 4
M  V30 4 1 3 5
M  V30 5 1 3 6
M  V30 6 2 4 7
M  V30 7 2 5 8
M  V30 8 1 5 9
M  V30 9 2 6 10
M  V30 10 1 6 11
M  V30 11 1 9 12
M  V30 12 1 9 13
M  V30 13 1 9 14
M  V30 14 1 10 15
M  V30 15 2 11 16
M  V30 16 1 11 17
M  V30 17 1 16 18
M  V30 18 1 17 19
M  V30 19 1 18 20
M  V30 20 2 18 21
M  V30 21 1 19 22
M  V30 22 1 20 23
M  V30 23 1 21 24
M  V30 24 2 22 25
M  V30 25 1 22 26
M  V30 26 1 25 27
M  V30 27 2 26 28
M  V30 28 2 27 29
M  V30 29 1 29 30
M  V30 30 2 30 31
M  V30 31 1 30 32
M  V30 32 1 7 8
M  V30 33 1 15 16
M  V30 34 2 23 24
M  V30 35 1 28 29
M  V30 END BOND
M  V30 END CTAB
M  END
>  <Molecule ChEMBL ID>
CHEMBL4469931

>  <Smiles>
O=C(O)c1ccc(NCc2c(-c3c(Cl)cccc3C(F)(F)F)noc2-c2ccco2)cc1

>  <IC50_nM>
100000

>  <Assay Description>
Inverse agonist activity at His6-tagged PPARgamma LBD (unknown origin) assessed as inhibition of rosiglitazone-induced N-terminal biotinylated co-activator SRC1 box2 peptide recruitment measured after 30 mins by TR-FRET assay

$$$$
CHEMBL5209370
Actelion Java MolfileCreator 2.0

  0  0  0  0  0  0              0 V3000
M  V30 BEGIN CTAB
M  V30 COUNTS 32 35 0 0 0
M  V30 BEGIN ATOM
M  V30 1 Cl 2.0253 -1.7449 0.0 0
M  V30 2 C 2.9763 -2.054 0.0 0
M  V30 3 C 3.7195 -1.3848 0.0 0
M  V30 4 C 3.1843 -3.0321 0.0 0
M  V30 5 C 4.6705 -1.6939 0.0 0
M  V30 6 C 3.5116 -0.4067 0.0 0
M  V30 7 C 4.1353 -3.3411 0.0 0
M  V30 8 C 4.8785 -2.672 0.0 0
M  V30 9 C 5.4137 -1.0247 0.0 0
M  V30 10 N 4.1807 0.3364 0.0 0
M  V30 11 C 2.598 0.0 0.0 0
M  V30 12 F 6.0828 -1.7679 0.0 0
M  V30 13 F 6.1568 -0.3556 0.0 0
M  V30 14 F 4.7446 -0.2816 0.0 0
M  V30 15 O 3.6807 1.2024 0.0 0
M  V30 16 C 2.7026 0.9945 0.0 0
M  V30 17 C 1.732 -0.5 0.0 0
M  V30 18 C 1.9594 1.6636 0.0 0
M  V30 19 S 0.866 0.0 0.0 0
M  V30 20 C 2.0639 2.6581 0.0 0
M  V30 21 C 0.9813 1.4557 0.0 0
M  V30 22 C 0.0 -0.5 0.0 0
M  V30 23 N 1.1504 3.0649 0.0 0
M  V30 24 C 0.4813 2.3217 0.0 0
M  V30 25 C -0.866 0.0 0.0 0
M  V30 26 C 0.0 -1.4999 0.0 0
M  V30 27 C -1.732 -0.4999 0.0 0
M  V30 28 C -0.866 -1.9999 0.0 0
M  V30 29 C -1.732 -1.4999 0.0 0
M  V30 30 C -2.598 -1.9999 0.0 0
M  V30 31 O -3.4641 -1.4999 0.0 0
M  V30 32 O -2.598 -2.9999 0.0 0
M  V30 END ATOM
M  V30 BEGIN BOND
M  V30 1 1 1 2
M  V30 2 2 2 3
M  V30 3 1 2 4
M  V30 4 1 3 5
M  V30 5 1 3 6
M  V30 6 2 4 7
M  V30 7 2 5 8
M  V30 8 1 5 9
M  V30 9 2 6 10
M  V30 10 1 6 11
M  V30 11 1 9 12
M  V30 12 1 9 13
M  V30 13 1 9 14
M  V30 14 1 10 15
M  V30 15 2 11 16
M  V30 16 1 11 17
M  V30 17 1 16 18
M  V30 18 1 17 19
M  V30 19 2 18 20
M  V30 20 1 18 21
M  V30 21 1 19 22
M  V30 22 1 20 23
M  V30 23 2 21 24
M  V30 24 2 22 25
M  V30 25 1 22 26
M  V30 26 1 25 27
M  V30 27 2 26 28
M  V30 28 2 27 29
M  V30 29 1 29 30
M  V30 30 2 30 31
M  V30 31 1 30 32
M  V30 32 1 7 8
M  V30 33 1 15 16
M  V30 34 1 23 24
M  V30 35 1 28 29
M  V30 END BOND
M  V30 END CTAB
M  END
>  <Molecule ChEMBL ID>
CHEMBL5209370

>  <Smiles>
O=C(O)c1ccc(SCc2c(-c3c(Cl)cccc3C(F)(F)F)noc2-c2cc[nH]c2)cc1

>  <IC50_nM>
100000

>  <Assay Description>
Inverse agonist activity at His6-tagged PPARgamma LBD (unknown origin) assessed as N-terminal biotinylated PGC1a coactivator peptide recruitment in presence of rosiglitazone by TR-FRET assay

$$$$
CHEMBL258558
Actelion Java MolfileCreator 2.0

  0  0  0  0  0  0              0 V3000
M  V30 BEGIN CTAB
M  V30 COUNTS 25 28 0 0 0
M  V30 BEGIN ATOM
M  V30 1 O 4.6471 1.299 0.0 0
M  V30 2 C 3.8971 0.0 0.0 0
M  V30 3 C 5.3971 0.0 0.0 0
M  V30 4 C 2.598 -0.75 0.0 0
M  V30 5 O 1.299 0.0 0.0 0
M  V30 6 C 0.0 -0.75 0.0 0
M  V30 7 C -1.299 0.0 0.0 0
M  V30 8 C 0.0 -2.25 0.0 0
M  V30 9 C -2.598 -0.75 0.0 0
M  V30 10 C -1.299 -3.0 0.0 0
M  V30 11 C -2.598 -2.25 0.0 0
M  V30 12 C -3.8971 -3.0 0.0 0
M  V30 13 C -3.8971 -4.5 0.0 0
M  V30 14 C -4.647 -1.7009 0.0 0
M  V30 15 C -5.397 -3.0 0.0 0
M  V30 16 C -5.1961 -5.25 0.0 0
M  V30 17 C -2.598 -5.25 0.0 0
M  V30 18 C -5.1961 -6.75 0.0 0
M  V30 19 C -2.598 -6.75 0.0 0
M  V30 20 C -3.8971 -7.5 0.0 0
M  V30 21 O -3.8971 -9.0 0.0 0
M  V30 22 C -5.1961 -9.75 0.0 0
M  V30 23 C -5.1961 -11.25 0.0 0
M  V30 24 O -5.9461 -12.549 0.0 0
M  V30 25 C -4.4461 -12.549 0.0 0
M  V30 END ATOM
M  V30 BEGIN BOND
M  V30 1 1 1 2
M  V30 2 1 1 3
M  V30 3 1 2 4
M  V30 4 1 4 5
M  V30 5 1 5 6
M  V30 6 2 6 7
M  V30 7 1 6 8
M  V30 8 1 7 9
M  V30 9 2 8 10
M  V30 10 2 9 11
M  V30 11 1 11 12
M  V30 12 1 12 13
M  V30 13 1 12 14
M  V30 14 1 12 15
M  V30 15 2 13 16
M  V30 16 1 13 17
M  V30 17 1 16 18
M  V30 18 2 17 19
M  V30 19 2 18 20
M  V30 20 1 20 21
M  V30 21 1 21 22
M  V30 22 1 22 23
M  V30 23 1 23 24
M  V30 24 1 23 25
M  V30 25 1 2 3
M  V30 26 1 10 11
M  V30 27 1 19 20
M  V30 28 1 24 25
M  V30 END BOND
M  V30 END CTAB
M  END
>  <Molecule ChEMBL ID>
CHEMBL258558

>  <Smiles>
CC(C)(c1ccc(OCC2CO2)cc1)c1ccc(OCC2CO2)cc1

>  <IC50_nM>
100000

>  <Assay Description>
Antagonist activity at human PPARgamma receptor expressed in Saccharomyces cerevisiae AH109 co-transfected with mouse CBP assessed as inhibition of rosiglitazone-induced LBD-CBP interaction by alpha-galactosidase based yeast two hybrid assay

$$$$
CHEMBL5189438
Actelion Java MolfileCreator 2.0

  0  0  0  0  0  0              0 V3000
M  V30 BEGIN CTAB
M  V30 COUNTS 33 36 0 0 0
M  V30 BEGIN ATOM
M  V30 1 Cl 2.0253 -1.7449 0.0 0
M  V30 2 C 2.9763 -2.054 0.0 0
M  V30 3 C 3.7195 -1.3848 0.0 0
M  V30 4 C 3.1843 -3.0321 0.0 0
M  V30 5 C 4.6705 -1.6939 0.0 0
M  V30 6 C 3.5116 -0.4067 0.0 0
M  V30 7 C 4.1353 -3.3411 0.0 0
M  V30 8 C 4.8785 -2.672 0.0 0
M  V30 9 C 5.4137 -1.0247 0.0 0
M  V30 10 N 4.1807 0.3364 0.0 0
M  V30 11 C 2.598 0.0 0.0 0
M  V30 12 F 6.0828 -1.7679 0.0 0
M  V30 13 F 6.1568 -0.3556 0.0 0
M  V30 14 F 4.7446 -0.2816 0.0 0
M  V30 15 O 3.6807 1.2024 0.0 0
M  V30 16 C 2.7026 0.9945 0.0 0
M  V30 17 C 1.732 -0.5 0.0 0
M  V30 18 C 1.9594 1.6636 0.0 0
M  V30 19 N 0.866 0.0 0.0 0
M  V30 20 C 2.0639 2.6581 0.0 0
M  V30 21 C 0.9813 1.4557 0.0 0
M  V30 22 C 0.0 -0.5 0.0 0
M  V30 23 N 1.1504 3.0649 0.0 0
M  V30 24 C 0.4813 2.3217 0.0 0
M  V30 25 C -0.866 0.0 0.0 0
M  V30 26 C 0.0 -1.4999 0.0 0
M  V30 27 C -1.732 -0.4999 0.0 0
M  V30 28 C -0.866 -1.9999 0.0 0
M  V30 29 F -2.598 0.0 0.0 0
M  V30 30 C -1.732 -1.4999 0.0 0
M  V30 31 C -2.598 -1.9999 0.0 0
M  V30 32 O -3.4641 -1.4999 0.0 0
M  V30 33 O -2.598 -2.9999 0.0 0
M  V30 END ATOM
M  V30 BEGIN BOND
M  V30 1 1 1 2
M  V30 2 2 2 3
M  V30 3 1 2 4
M  V30 4 1 3 5
M  V30 5 1 3 6
M  V30 6 2 4 7
M  V30 7 2 5 8
M  V30 8 1 5 9
M  V30 9 2 6 10
M  V30 10 1 6 11
M  V30 11 1 9 12
M  V30 12 1 9 13
M  V30 13 1 9 14
M  V30 14 1 10 15
M  V30 15 2 11 16
M  V30 16 1 11 17
M  V30 17 1 16 18
M  V30 18 1 17 19
M  V30 19 2 18 20
M  V30 20 1 18 21
M  V30 21 1 19 22
M  V30 22 1 20 23
M  V30 23 2 21 24
M  V30 24 2 22 25
M  V30 25 1 22 26
M  V30 26 1 25 27
M  V30 27 2 26 28
M  V30 28 1 27 29
M  V30 29 2 27 30
M  V30 30 1 30 31
M  V30 31 2 31 32
M  V30 32 1 31 33
M  V30 33 1 7 8
M  V30 34 1 15 16
M  V30 35 1 23 24
M  V30 36 1 28 30
M  V30 END BOND
M  V30 END CTAB
M  END
>  <Molecule ChEMBL ID>
CHEMBL5189438

>  <Smiles>
O=C(O)c1ccc(NCc2c(-c3c(Cl)cccc3C(F)(F)F)noc2-c2cc[nH]c2)cc1F

>  <IC50_nM>
100000

>  <Assay Description>
Inverse agonist activity at His6-tagged PPARgamma LBD (unknown origin) assessed as N-terminal biotinylated PGC1a coactivator peptide recruitment in presence of rosiglitazone by TR-FRET assay

$$$$
CHEMBL3343011
Actelion Java MolfileCreator 2.0

  0  0  0  0  0  0              0 V3000
M  V30 BEGIN CTAB
M  V30 COUNTS 20 22 0 0 0
M  V30 BEGIN ATOM
M  V30 1 O 3.4641 -3.5 0.0 0
M  V30 2 C 4.3301 -2.9999 0.0 0
M  V30 3 C 5.1961 -3.4999 0.0 0
M  V30 4 C 4.3301 -1.9999 0.0 0 CFG=2
M  V30 5 C 6.0621 -2.9999 0.0 0
M  V30 6 C 5.1961 -4.4999 0.0 0
M  V30 7 C 3.4641 -1.4999 0.0 0
M  V30 8 C 5.1961 -1.4999 0.0 0
M  V30 9 O 6.0621 -1.9999 0.0 0
M  V30 10 C 6.9282 -3.4999 0.0 0
M  V30 11 C 6.0621 -4.9999 0.0 0
M  V30 12 C 3.4641 -0.5 0.0 0
M  V30 13 C 2.598 -1.9999 0.0 0
M  V30 14 C 6.9282 -4.4999 0.0 0
M  V30 15 C 2.598 0.0 0.0 0
M  V30 16 C 1.732 -1.5 0.0 0
M  V30 17 O 7.7942 -4.9999 0.0 0
M  V30 18 C 1.732 -0.5 0.0 0
M  V30 19 O 0.866 0.0 0.0 0
M  V30 20 C 0.0 -0.5 0.0 0
M  V30 END ATOM
M  V30 BEGIN BOND
M  V30 1 2 1 2
M  V30 2 1 2 3
M  V30 3 1 2 4
M  V30 4 2 3 5
M  V30 5 1 3 6
M  V30 6 1 4 7 CFG=3
M  V30 7 1 4 8
M  V30 8 1 5 9
M  V30 9 1 5 10
M  V30 10 2 6 11
M  V30 11 2 7 12
M  V30 12 1 7 13
M  V30 13 2 10 14
M  V30 14 1 12 15
M  V30 15 2 13 16
M  V30 16 1 14 17
M  V30 17 2 15 18
M  V30 18 1 18 19
M  V30 19 1 19 20
M  V30 20 1 8 9
M  V30 21 1 11 14
M  V30 22 1 16 18
M  V30 END BOND
M  V30 BEGIN COLLECTION
M  V30 MDLV30/STERAC1 ATOMS=(1 4)
M  V30 END COLLECTION
M  V30 END CTAB
M  END
>  <Molecule ChEMBL ID>
CHEMBL3343011

>  <Smiles>
COc1ccc(C2COc3cc(O)ccc3C2=O)cc1

>  <IC50_nM>
124000

>  <Assay Description>
Binding affinity to PPAR-gamma (unknown origin)

$$$$
CHEMBL4878798
Actelion Java MolfileCreator 2.0

  0  0  0  0  0  0              0 V3000
M  V30 BEGIN CTAB
M  V30 COUNTS 26 27 0 0 0
M  V30 BEGIN ATOM
M  V30 1 S 7.7942 -2.25 0.0 0
M  V30 2 O 8.5442 -3.549 0.0 0
M  V30 3 O 9.2942 -2.2499 0.0 0
M  V30 4 N 7.7942 -0.75 0.0 0
M  V30 5 C 6.4952 -3.0 0.0 0
M  V30 6 C 6.4952 0.0 0.0 0 CFG=2
M  V30 7 C 5.1961 -2.25 0.0 0
M  V30 8 C 6.4952 -4.5 0.0 0
M  V30 9 C 6.4952 1.5 0.0 0
M  V30 10 C 5.1961 -0.75 0.0 0
M  V30 11 C 3.8971 -3.0 0.0 0
M  V30 12 C 5.1961 -5.25 0.0 0
M  V30 13 O 7.7942 2.25 0.0 0
M  V30 14 O 5.1961 2.25 0.0 0
M  V30 15 C 3.8971 0.0 0.0 0
M  V30 16 C 3.8971 -4.5 0.0 0
M  V30 17 C 2.598 -0.75 0.0 0
M  V30 18 C 2.598 -5.25 0.0 0
M  V30 19 O 2.598 -2.25 0.0 0
M  V30 20 N 1.299 0.0 0.0 0
M  V30 21 C 0.0 -0.75 0.0 0
M  V30 22 C -1.299 0.0 0.0 0
M  V30 23 C 0.0 -2.25 0.0 0
M  V30 24 C -2.598 -0.75 0.0 0
M  V30 25 C -1.299 -3.0 0.0 0
M  V30 26 C -2.598 -2.25 0.0 0
M  V30 END ATOM
M  V30 BEGIN BOND
M  V30 1 2 1 2
M  V30 2 2 1 3
M  V30 3 1 1 4
M  V30 4 1 1 5
M  V30 5 1 6 4 CFG=1
M  V30 6 2 5 7
M  V30 7 1 5 8
M  V30 8 1 6 9
M  V30 9 1 6 10
M  V30 10 1 7 11
M  V30 11 2 8 12
M  V30 12 2 9 13
M  V30 13 1 9 14
M  V30 14 1 10 15
M  V30 15 2 11 16
M  V30 16 1 15 17
M  V30 17 1 16 18
M  V30 18 2 17 19
M  V30 19 1 17 20
M  V30 20 1 20 21
M  V30 21 2 21 22
M  V30 22 1 21 23
M  V30 23 1 22 24
M  V30 24 2 23 25
M  V30 25 2 24 26
M  V30 26 1 12 16
M  V30 27 1 25 26
M  V30 END BOND
M  V30 BEGIN COLLECTION
M  V30 MDLV30/STEABS ATOMS=(1 6)
M  V30 END COLLECTION
M  V30 END CTAB
M  END
>  <Molecule ChEMBL ID>
CHEMBL4878798

>  <Smiles>
Cc1ccc(S(=O)(=O)N[C@@H](CCC(=O)Nc2ccccc2)C(=O)O)cc1

>  <IC50_nM>
140000

>  <Assay Description>
Antagonist activity at PPARgamma (unknown origin) expressed in human LNCaP cells assessed as suppression of pioglitazone-induced PPAR response element driven firefly luciferase activity measured after 24 hrs by dual luciferase reporter assay

$$$$
CHEMBL284768
Actelion Java MolfileCreator 2.0

  0  0  0  0  0  0              0 V3000
M  V30 BEGIN CTAB
M  V30 COUNTS 21 21 0 0 0
M  V30 BEGIN ATOM
M  V30 1 Cl 3.4641 -4.5 0.0 0
M  V30 2 C 3.4641 -3.5 0.0 0
M  V30 3 C 4.3301 -3.0 0.0 0
M  V30 4 C 2.598 -3.0 0.0 0
M  V30 5 C 4.3301 -1.9999 0.0 0
M  V30 6 C 2.598 -2.0 0.0 0
M  V30 7 C 3.4641 -1.5 0.0 0
M  V30 8 C 3.4641 -0.5 0.0 0 CFG=2
M  V30 9 P 4.3301 0.0 0.0 0
M  V30 10 O 2.598 0.0 0.0 0
M  V30 11 O 4.3301 -1.0 0.0 0
M  V30 12 O 5.1961 -0.5 0.0 0
M  V30 13 O 4.3301 0.9999 0.0 0
M  V30 14 P 1.732 -0.5 0.0 0
M  V30 15 C 6.0621 0.0 0.0 0
M  V30 16 C 5.1961 1.4999 0.0 0
M  V30 17 O 2.598 -0.9999 0.0 0
M  V30 18 O 1.732 -1.5 0.0 0
M  V30 19 O 0.866 0.0 0.0 0
M  V30 20 C 0.866 -1.9999 0.0 0
M  V30 21 C 0.0 -0.5 0.0 0
M  V30 END ATOM
M  V30 BEGIN BOND
M  V30 1 1 1 2
M  V30 2 2 2 3
M  V30 3 1 2 4
M  V30 4 1 3 5
M  V30 5 2 4 6
M  V30 6 2 5 7
M  V30 7 1 7 8
M  V30 8 1 8 9
M  V30 9 1 8 10 CFG=1
M  V30 10 2 9 11
M  V30 11 1 9 12
M  V30 12 1 9 13
M  V30 13 1 10 14
M  V30 14 1 12 15
M  V30 15 1 13 16
M  V30 16 2 14 17
M  V30 17 1 14 18
M  V30 18 1 14 19
M  V30 19 1 18 20
M  V30 20 1 19 21
M  V30 21 1 6 7
M  V30 END BOND
M  V30 BEGIN COLLECTION
M  V30 MDLV30/STERAC1 ATOMS=(1 8)
M  V30 END COLLECTION
M  V30 END CTAB
M  END
>  <Molecule ChEMBL ID>
CHEMBL284768

>  <Smiles>
COP(=O)(OC)OC(c1ccc(Cl)cc1)P(=O)(OC)OC

>  <IC50_nM>
140000

>  <Assay Description>
Antagonist activity at human PPARgamma receptor expressed in Saccharomyces cerevisiae AH109 co-transfected with mouse CBP assessed as inhibition of rosiglitazone-induced LBD-CBP interaction by alpha-galactosidase based yeast two hybrid assay

$$$$
CHEMBL4852057
Actelion Java MolfileCreator 2.0

  0  0  0  0  0  0              0 V3000
M  V30 BEGIN CTAB
M  V30 COUNTS 19 19 0 0 0
M  V30 BEGIN ATOM
M  V30 1 O 5.1961 -1.4999 0.0 0
M  V30 2 C 5.1961 -0.5 0.0 0
M  V30 3 N 6.0621 0.0 0.0 0
M  V30 4 C 4.3301 0.0 0.0 0
M  V30 5 C 6.9282 -0.5 0.0 0
M  V30 6 C 3.4641 -0.5 0.0 0
M  V30 7 C 6.9282 -1.5 0.0 0
M  V30 8 C 7.7942 0.0 0.0 0
M  V30 9 N 2.598 0.0 0.0 0
M  V30 10 C 3.4641 -1.5 0.0 0
M  V30 11 C 7.7942 -2.0 0.0 0
M  V30 12 C 6.0621 -1.9999 0.0 0
M  V30 13 C 8.6602 -0.5 0.0 0
M  V30 14 N 1.732 -0.5 0.0 0
M  V30 15 C 8.6602 -1.4999 0.0 0
M  V30 16 C 0.866 0.0 0.0 0
M  V30 17 C 9.5262 -2.0 0.0 0
M  V30 18 N 0.866 1.0 0.0 0
M  V30 19 N 0.0 -0.5 0.0 0
M  V30 END ATOM
M  V30 BEGIN BOND
M  V30 1 2 1 2
M  V30 2 1 2 3
M  V30 3 1 2 4
M  V30 4 1 3 5
M  V30 5 1 4 6
M  V30 6 2 5 7
M  V30 7 1 5 8
M  V30 8 2 6 9
M  V30 9 1 6 10
M  V30 10 1 7 11
M  V30 11 1 7 12
M  V30 12 2 8 13
M  V30 13 1 9 14
M  V30 14 2 11 15
M  V30 15 1 14 16
M  V30 16 1 15 17
M  V30 17 2 16 18
M  V30 18 1 16 19
M  V30 19 1 13 15
M  V30 END BOND
M  V30 END CTAB
M  END
>  <Molecule ChEMBL ID>
CHEMBL4852057

>  <Smiles>
C/C(CC(=O)Nc1ccc(C)cc1C)=N\NC(=N)N

>  <IC50_nM>
180000

>  <Assay Description>
Antagonist activity at PPARgamma (unknown origin) expressed in human LNCaP cells assessed as suppression of pioglitazone-induced PPAR response element driven firefly luciferase activity measured after 24 hrs by dual luciferase reporter assay

$$$$
CHEMBL3753308
Actelion Java MolfileCreator 2.0

  0  0  0  0  0  0              0 V3000
M  V30 BEGIN CTAB
M  V30 COUNTS 39 42 0 0 0
M  V30 BEGIN ATOM
M  V30 1 O 7.7942 5.9999 0.0 0
M  V30 2 C 6.9282 5.4999 0.0 0
M  V30 3 N 6.0621 5.9999 0.0 0
M  V30 4 N 6.9282 4.4999 0.0 0
M  V30 5 C 5.1961 5.5 0.0 0
M  V30 6 C 6.0621 3.9999 0.0 0
M  V30 7 O 4.3301 6.0 0.0 0
M  V30 8 C 5.1961 4.5 0.0 0
M  V30 9 O 6.0621 3.0 0.0 0
M  V30 10 C 4.3301 3.9999 0.0 0
M  V30 11 C 4.3301 2.9999 0.0 0
M  V30 12 C 3.4641 2.5 0.0 0
M  V30 13 C 5.1961 2.4999 0.0 0
M  V30 14 C 3.4641 1.5 0.0 0
M  V30 15 C 5.1961 1.4999 0.0 0
M  V30 16 C 4.3301 0.9999 0.0 0
M  V30 17 N 4.3301 0.0 0.0 0
M  V30 18 C 5.1961 -0.5 0.0 0
M  V30 19 C 3.4641 -0.5 0.0 0
M  V30 20 C 6.0621 0.0 0.0 0
M  V30 21 C 2.598 0.0 0.0 0
M  V30 22 O 6.9282 -0.5 0.0 0
M  V30 23 O 1.732 -0.5 0.0 0
M  V30 24 C 7.7942 0.0 0.0 0
M  V30 25 C 0.866 0.0 0.0 0
M  V30 26 C 8.6602 -0.5 0.0 0
M  V30 27 C 0.0 -0.5 0.0 0
M  V30 28 C 8.6602 -1.5 0.0 0
M  V30 29 C 9.5262 0.0 0.0 0
M  V30 30 C -0.866 0.0 0.0 0
M  V30 31 C 0.0 -1.4999 0.0 0
M  V30 32 C 9.5262 -2.0 0.0 0
M  V30 33 C 10.3923 -0.5 0.0 0
M  V30 34 C -1.732 -0.4999 0.0 0
M  V30 35 C -0.866 -1.9999 0.0 0
M  V30 36 C 10.3923 -1.5 0.0 0
M  V30 37 C -1.732 -1.4999 0.0 0
M  V30 38 O 11.2583 -1.9999 0.0 0
M  V30 39 C 12.1243 -1.4999 0.0 0
M  V30 END ATOM
M  V30 BEGIN BOND
M  V30 1 2 1 2
M  V30 2 1 2 3
M  V30 3 1 2 4
M  V30 4 1 3 5
M  V30 5 1 4 6
M  V30 6 2 5 7
M  V30 7 1 5 8
M  V30 8 2 6 9
M  V30 9 2 8 10
M  V30 10 1 10 11
M  V30 11 2 11 12
M  V30 12 1 11 13
M  V30 13 1 12 14
M  V30 14 2 13 15
M  V30 15 2 14 16
M  V30 16 1 16 17
M  V30 17 1 17 18
M  V30 18 1 17 19
M  V30 19 1 18 20
M  V30 20 1 19 21
M  V30 21 1 20 22
M  V30 22 1 21 23
M  V30 23 1 22 24
M  V30 24 1 23 25
M  V30 25 1 24 26
M  V30 26 1 25 27
M  V30 27 2 26 28
M  V30 28 1 26 29
M  V30 29 2 27 30
M  V30 30 1 27 31
M  V30 31 1 28 32
M  V30 32 2 29 33
M  V30 33 1 30 34
M  V30 34 2 31 35
M  V30 35 2 32 36
M  V30 36 2 34 37
M  V30 37 1 36 38
M  V30 38 1 38 39
M  V30 39 1 6 8
M  V30 40 1 15 16
M  V30 41 1 33 36
M  V30 42 1 35 37
M  V30 END BOND
M  V30 END CTAB
M  END
>  <Molecule ChEMBL ID>
CHEMBL3753308

>  <Smiles>
COc1ccc(COCCN(CCOCc2ccccc2)c2ccc(C=C3C(=O)NC(=O)NC3=O)cc2)cc1

>  <IC50_nM>
191000

>  <Assay Description>
Binding affinity to GST-tagged human PPAR-gamma receptor by FRET assay

$$$$
CHEMBL3754373
Actelion Java MolfileCreator 2.0

  0  0  0  0  0  0              0 V3000
M  V30 BEGIN CTAB
M  V30 COUNTS 33 35 0 0 0
M  V30 BEGIN ATOM
M  V30 1 O 11.6913 9.0 0.0 0
M  V30 2 C 10.3923 8.25 0.0 0
M  V30 3 N 9.0932 8.9999 0.0 0
M  V30 4 N 10.3923 6.7499 0.0 0
M  V30 5 C 7.7942 8.25 0.0 0
M  V30 6 C 9.0932 6.0 0.0 0
M  V30 7 O 6.4951 9.0 0.0 0
M  V30 8 C 7.7942 6.75 0.0 0
M  V30 9 O 9.0932 4.5 0.0 0
M  V30 10 C 6.4951 6.0 0.0 0
M  V30 11 C 6.4951 4.5 0.0 0
M  V30 12 C 5.1961 3.75 0.0 0
M  V30 13 C 7.7942 3.7499 0.0 0
M  V30 14 C 5.1961 2.25 0.0 0
M  V30 15 C 7.7942 2.2499 0.0 0
M  V30 16 C 6.4951 1.5 0.0 0
M  V30 17 N 6.4951 0.0 0.0 0
M  V30 18 C 7.7942 -0.75 0.0 0
M  V30 19 C 5.1961 -0.75 0.0 0
M  V30 20 C 9.0932 0.0 0.0 0
M  V30 21 C 3.8971 0.0 0.0 0
M  V30 22 O 10.3923 -0.75 0.0 0
M  V30 23 O 2.598 -0.75 0.0 0
M  V30 24 C 11.6913 0.0 0.0 0
M  V30 25 C 1.299 0.0 0.0 0
M  V30 26 O 12.9903 -0.75 0.0 0
M  V30 27 C 11.6913 1.5 0.0 0
M  V30 28 C 0.0 -0.75 0.0 0
M  V30 29 C -1.299 0.0 0.0 0
M  V30 30 C 0.0 -2.25 0.0 0
M  V30 31 C -2.598 -0.7499 0.0 0
M  V30 32 C -1.299 -2.9999 0.0 0
M  V30 33 C -2.598 -2.2499 0.0 0
M  V30 END ATOM
M  V30 BEGIN BOND
M  V30 1 2 1 2
M  V30 2 1 2 3
M  V30 3 1 2 4
M  V30 4 1 3 5
M  V30 5 1 4 6
M  V30 6 2 5 7
M  V30 7 1 5 8
M  V30 8 2 6 9
M  V30 9 2 8 10
M  V30 10 1 10 11
M  V30 11 2 11 12
M  V30 12 1 11 13
M  V30 13 1 12 14
M  V30 14 2 13 15
M  V30 15 2 14 16
M  V30 16 1 16 17
M  V30 17 1 17 18
M  V30 18 1 17 19
M  V30 19 1 18 20
M  V30 20 1 19 21
M  V30 21 1 20 22
M  V30 22 1 21 23
M  V30 23 1 22 24
M  V30 24 1 23 25
M  V30 25 2 24 26
M  V30 26 1 24 27
M  V30 27 1 25 28
M  V30 28 2 28 29
M  V30 29 1 28 30
M  V30 30 1 29 31
M  V30 31 2 30 32
M  V30 32 2 31 33
M  V30 33 1 6 8
M  V30 34 1 15 16
M  V30 35 1 32 33
M  V30 END BOND
M  V30 END CTAB
M  END
>  <Molecule ChEMBL ID>
CHEMBL3754373

>  <Smiles>
CC(=O)OCCN(CCOCc1ccccc1)c1ccc(C=C2C(=O)NC(=O)NC2=O)cc1

>  <IC50_nM>
200000

>  <Assay Description>
Binding affinity to GST-tagged human PPAR-gamma receptor by FRET assay

$$$$
CHEMBL4869272
Actelion Java MolfileCreator 2.0

  0  0  0  0  0  0              0 V3000
M  V30 BEGIN CTAB
M  V30 COUNTS 28 29 0 0 0
M  V30 BEGIN ATOM
M  V30 1 S 7.7942 -2.25 0.0 0
M  V30 2 O 8.5442 -3.549 0.0 0
M  V30 3 O 9.2942 -2.2499 0.0 0
M  V30 4 N 7.7942 -0.75 0.0 0
M  V30 5 C 6.4952 -3.0 0.0 0
M  V30 6 C 6.4952 0.0 0.0 0 CFG=2
M  V30 7 C 5.1961 -2.25 0.0 0
M  V30 8 C 6.4952 -4.5 0.0 0
M  V30 9 C 6.4952 1.5 0.0 0
M  V30 10 C 5.1961 -0.75 0.0 0
M  V30 11 C 3.8971 -3.0 0.0 0
M  V30 12 C 5.1961 -5.25 0.0 0
M  V30 13 O 7.7942 2.25 0.0 0
M  V30 14 O 5.1961 2.25 0.0 0
M  V30 15 C 3.8971 0.0 0.0 0
M  V30 16 C 3.8971 -4.5 0.0 0
M  V30 17 C 2.598 -0.75 0.0 0
M  V30 18 C 2.598 -5.25 0.0 0
M  V30 19 O 2.598 -2.25 0.0 0
M  V30 20 N 1.299 0.0 0.0 0
M  V30 21 C 0.0 -0.75 0.0 0
M  V30 22 C -1.299 0.0 0.0 0
M  V30 23 C 0.0 -2.25 0.0 0
M  V30 24 C -2.598 -0.75 0.0 0
M  V30 25 C -1.299 -3.0 0.0 0
M  V30 26 C -2.598 -2.25 0.0 0
M  V30 27 O -3.8971 -3.0 0.0 0
M  V30 28 C -3.8971 -4.5 0.0 0
M  V30 END ATOM
M  V30 BEGIN BOND
M  V30 1 2 1 2
M  V30 2 2 1 3
M  V30 3 1 1 4
M  V30 4 1 1 5
M  V30 5 1 6 4 CFG=1
M  V30 6 2 5 7
M  V30 7 1 5 8
M  V30 8 1 6 9
M  V30 9 1 6 10
M  V30 10 1 7 11
M  V30 11 2 8 12
M  V30 12 2 9 13
M  V30 13 1 9 14
M  V30 14 1 10 15
M  V30 15 2 11 16
M  V30 16 1 15 17
M  V30 17 1 16 18
M  V30 18 2 17 19
M  V30 19 1 17 20
M  V30 20 1 20 21
M  V30 21 2 21 22
M  V30 22 1 21 23
M  V30 23 1 22 24
M  V30 24 2 23 25
M  V30 25 2 24 26
M  V30 26 1 26 27
M  V30 27 1 27 28
M  V30 28 1 12 16
M  V30 29 1 25 26
M  V30 END BOND
M  V30 BEGIN COLLECTION
M  V30 MDLV30/STEABS ATOMS=(1 6)
M  V30 END COLLECTION
M  V30 END CTAB
M  END
>  <Molecule ChEMBL ID>
CHEMBL4869272

>  <Smiles>
COc1ccc(NC(=O)CC[C@H](NS(=O)(=O)c2ccc(C)cc2)C(=O)O)cc1

>  <IC50_nM>
275000

>  <Assay Description>
Antagonist activity at PPARgamma (unknown origin) expressed in human LNCaP cells assessed as suppression of pioglitazone-induced PPAR response element driven firefly luciferase activity measured after 24 hrs by dual luciferase reporter assay

$$$$
CHEMBL981
Actelion Java MolfileCreator 2.0

  0  0  0  0  0  0              0 V3000
M  V30 BEGIN CTAB
M  V30 COUNTS 22 23 0 0 0
M  V30 BEGIN ATOM
M  V30 1 Cl 9.0932 -9.0 0.0 0
M  V30 2 C 9.0932 -7.5 0.0 0
M  V30 3 C 10.3923 -6.75 0.0 0
M  V30 4 C 7.7942 -6.75 0.0 0
M  V30 5 C 10.3923 -5.25 0.0 0
M  V30 6 C 7.7942 -5.25 0.0 0
M  V30 7 C 9.0932 -4.5 0.0 0
M  V30 8 C 9.0932 -3.0 0.0 0
M  V30 9 O 10.3923 -2.25 0.0 0
M  V30 10 C 7.7942 -2.25 0.0 0
M  V30 11 C 7.7942 -0.75 0.0 0
M  V30 12 C 6.4952 -3.0 0.0 0
M  V30 13 C 6.4952 0.0 0.0 0
M  V30 14 C 5.1961 -2.25 0.0 0
M  V30 15 C 5.1961 -0.75 0.0 0
M  V30 16 O 3.8971 0.0 0.0 0
M  V30 17 C 2.598 -0.75 0.0 0
M  V30 18 C 1.299 0.0 0.0 0
M  V30 19 C 1.848 -2.049 0.0 0
M  V30 20 C 3.348 -2.049 0.0 0
M  V30 21 O 1.299 1.5 0.0 0
M  V30 22 O 0.0 -0.75 0.0 0
M  V30 END ATOM
M  V30 BEGIN BOND
M  V30 1 1 1 2
M  V30 2 2 2 3
M  V30 3 1 2 4
M  V30 4 1 3 5
M  V30 5 2 4 6
M  V30 6 2 5 7
M  V30 7 1 7 8
M  V30 8 2 8 9
M  V30 9 1 8 10
M  V30 10 2 10 11
M  V30 11 1 10 12
M  V30 12 1 11 13
M  V30 13 2 12 14
M  V30 14 2 13 15
M  V30 15 1 15 16
M  V30 16 1 16 17
M  V30 17 1 17 18
M  V30 18 1 17 19
M  V30 19 1 17 20
M  V30 20 2 18 21
M  V30 21 1 18 22
M  V30 22 1 6 7
M  V30 23 1 14 15
M  V30 END BOND
M  V30 END CTAB
M  END
>  <Molecule ChEMBL ID>
CHEMBL981

>  <Smiles>
CC(C)(Oc1ccc(C(=O)c2ccc(Cl)cc2)cc1)C(=O)O

>  <IC50_nM>
744000

>  <Assay Description>
Displacement of radio labeled 2(S)-(2-benzoyl-phenylamino)-3-{4-[1,1-ditritio-2-(5-methyl-2-phenyl-oxazol-4-yl)-ethoxy]-phenyl}-propionic acid from GST-fused human PPARgamma expressed in Escherichia coli BL21 cells by scintillation proximity assay

$$$$
CHEMBL465746
Actelion Java MolfileCreator 2.0

  0  0  0  0  0  0              0 V3000
M  V30 BEGIN CTAB
M  V30 COUNTS 33 35 0 0 0
M  V30 BEGIN ATOM
M  V30 1 S 5.1961 -0.75 0.0 0
M  V30 2 O 4.4461 -2.049 0.0 0
M  V30 3 O 5.9461 -2.049 0.0 0
M  V30 4 N 3.8971 0.0 0.0 0
M  V30 5 C 6.4952 0.0 0.0 0
M  V30 6 C 2.598 -0.75 0.0 0
M  V30 7 C 7.7942 -0.75 0.0 0
M  V30 8 C 6.4952 1.5 0.0 0
M  V30 9 S 2.598 -2.25 0.0 0
M  V30 10 N 1.299 0.0 0.0 0
M  V30 11 C 9.0932 0.0 0.0 0
M  V30 12 C 7.7942 2.25 0.0 0
M  V30 13 C 0.0 -0.75 0.0 0
M  V30 14 C 9.0932 1.5 0.0 0
M  V30 15 C -1.299 0.0 0.0 0
M  V30 16 C 0.0 -2.25 0.0 0
M  V30 17 C 10.3923 2.25 0.0 0
M  V30 18 C -2.598 -0.75 0.0 0
M  V30 19 C -1.299 -3.0 0.0 0
M  V30 20 C 11.6913 1.5 0.0 0
M  V30 21 C -2.598 -2.25 0.0 0
M  V30 22 N 12.9904 2.25 0.0 0
M  V30 23 O -3.8971 -3.0 0.0 0
M  V30 24 S 14.2894 1.5 0.0 0
M  V30 25 C -3.8971 -4.5 0.0 0
M  V30 26 O 13.5394 0.201 0.0 0
M  V30 27 O 15.0394 0.201 0.0 0
M  V30 28 C 15.5884 2.25 0.0 0
M  V30 29 C 16.8875 1.5 0.0 0
M  V30 30 C 15.5884 3.75 0.0 0
M  V30 31 C 18.1865 2.25 0.0 0
M  V30 32 C 16.8875 4.5 0.0 0
M  V30 33 C 18.1865 3.75 0.0 0
M  V30 END ATOM
M  V30 BEGIN BOND
M  V30 1 2 1 2
M  V30 2 2 1 3
M  V30 3 1 1 4
M  V30 4 1 1 5
M  V30 5 1 4 6
M  V30 6 2 5 7
M  V30 7 1 5 8
M  V30 8 2 6 9
M  V30 9 1 6 10
M  V30 10 1 7 11
M  V30 11 2 8 12
M  V30 12 1 10 13
M  V30 13 2 11 14
M  V30 14 2 13 15
M  V30 15 1 13 16
M  V30 16 1 14 17
M  V30 17 1 15 18
M  V30 18 2 16 19
M  V30 19 1 17 20
M  V30 20 2 18 21
M  V30 21 1 20 22
M  V30 22 1 21 23
M  V30 23 1 22 24
M  V30 24 1 23 25
M  V30 25 2 24 26
M  V30 26 2 24 27
M  V30 27 1 24 28
M  V30 28 2 28 29
M  V30 29 1 28 30
M  V30 30 1 29 31
M  V30 31 2 30 32
M  V30 32 2 31 33
M  V30 33 1 12 14
M  V30 34 1 19 21
M  V30 35 1 32 33
M  V30 END BOND
M  V30 END CTAB
M  END
>  <Molecule ChEMBL ID>
CHEMBL465746

>  <Smiles>
COc1ccc(NC(=S)NS(=O)(=O)c2ccc(CCNS(=O)(=O)c3ccccc3)cc2)cc1

>  <IC50_nM>
1e+06

>  <Assay Description>
Displacement of fluormone-PPARgamma green from GST-tagged PPARgamma-LBD (unknown origin) by fluorescence polarization assay

$$$$
